<?xml version="1.0"?>
<!DOCTYPE facilities SYSTEM "http://www.matsim.org/files/dtd/facilities_v1.dtd">
<facilities name="mopy" >
<facility id="907" x="18.59141812171661 " y="53.266493821418855">
<activity type="rest">
</activity>
</facility>
<facility id="908" x="18.587482495383806 " y="53.2651381605316">
<activity type="rest">
</activity>
</facility>
<facility id="909" x="18.668691428034897 " y="53.403316438662266">
<activity type="rest">
</activity>
</facility>
<facility id="910" x="18.666547806277922 " y="53.40138344277906">
<activity type="rest">
</activity>
</facility>
<facility id="911" x="18.777961625232187 " y="54.03610893184803">
<activity type="rest">
</activity>
</facility>
<facility id="912" x="18.775133691152035 " y="54.03592017944741">
<activity type="rest">
</activity>
</facility>
<facility id="913" x="20.611131713924618 " y="52.445711761701745">
<activity type="rest">
</activity>
</facility>
<facility id="914" x="20.854663730740445 " y="51.87970094947012">
<activity type="rest">
</activity>
</facility>
<facility id="915" x="20.851132323003664 " y="51.86764035743966">
<activity type="rest">
</activity>
</facility>
<facility id="916" x="20.877768771607734 " y="51.8342154654932">
<activity type="rest">
</activity>
</facility>
<facility id="917" x="20.877153050149257 " y="51.83366130684167">
<activity type="rest">
</activity>
</facility>
<facility id="918" x="20.90923837922438 " y="51.74682167825065">
<activity type="rest">
</activity>
</facility>
<facility id="919" x="20.91142396625382 " y="51.74555236050111">
<activity type="rest">
</activity>
</facility>
<facility id="920" x="20.92994490804478 " y="51.69828737314906">
<activity type="rest">
</activity>
</facility>
<facility id="921" x="20.932881313428975 " y="51.69327079619182">
<activity type="rest">
</activity>
</facility>
<facility id="800" x="19.878574869535036 " y="51.505337209279084">
<activity type="rest">
</activity>
</facility>
<facility id="922" x="20.851132323003664 " y="51.86764035743966">
<activity type="rest">
</activity>
</facility>
<facility id="801" x="19.886899421415148 " y="51.50608974663455">
<activity type="rest">
</activity>
</facility>
<facility id="802" x="19.910760587423997 " y="51.51627882791855">
<activity type="rest">
</activity>
</facility>
<facility id="923" x="20.973849315588456 " y="51.620115966310514">
<activity type="rest">
</activity>
</facility>
<facility id="924" x="21.007416075407836 " y="51.576714875166054">
<activity type="rest">
</activity>
</facility>
<facility id="803" x="20.130348809327156 " y="51.64244456067959">
<activity type="rest">
</activity>
</facility>
<facility id="804" x="20.190758220180353 " y="51.679423890670215">
<activity type="rest">
</activity>
</facility>
<facility id="925" x="21.018851545160135 " y="51.57039707587489">
<activity type="rest">
</activity>
</facility>
<facility id="926" x="21.09981024523173 " y="51.52356798148896">
<activity type="rest">
</activity>
</facility>
<facility id="805" x="20.231012926304246 " y="51.73417747433856">
<activity type="rest">
</activity>
</facility>
<facility id="806" x="20.231012926304246 " y="51.73417747433856">
<activity type="rest">
</activity>
</facility>
<facility id="927" x="21.059688128070004 " y="51.541930507132534">
<activity type="rest">
</activity>
</facility>
<facility id="928" x="20.492405611196013 " y="51.95181351279748">
<activity type="rest">
</activity>
</facility>
<facility id="807" x="20.3814175523317 " y="51.86192698419916">
<activity type="rest">
</activity>
</facility>
<facility id="808" x="19.780497092082186 " y="51.46036899950858">
<activity type="rest">
</activity>
</facility>
<facility id="929" x="18.39612739316478 " y="53.31855992607228">
<activity type="rest">
</activity>
</facility>
<facility id="809" x="19.824429464013626 " y="51.48873885922615">
<activity type="rest">
</activity>
</facility>
<facility id="930" x="20.59032957656881 " y="52.0037604943228">
<activity type="rest">
</activity>
</facility>
<facility id="931" x="20.672601741913397 " y="52.02826328227561">
<activity type="rest">
</activity>
</facility>
<facility id="810" x="19.84002986435495 " y="51.49484013710885">
<activity type="rest">
</activity>
</facility>
<facility id="811" x="19.87571086083218 " y="51.505133760166466">
<activity type="rest">
</activity>
</facility>
<facility id="932" x="20.697774983009115 " y="52.03981410723806">
<activity type="rest">
</activity>
</facility>
<facility id="933" x="21.24758680966052 " y="52.44184010389305">
<activity type="rest">
</activity>
</facility>
<facility id="812" x="19.90601553269377 " y="51.51451187430686">
<activity type="rest">
</activity>
</facility>
<facility id="934" x="21.293570015641958 " y="52.45831812261583">
<activity type="rest">
</activity>
</facility>
<facility id="813" x="19.935829768463556 " y="51.52442972967516">
<activity type="rest">
</activity>
</facility>
<facility id="814" x="20.041276547762976 " y="51.5898979306822">
<activity type="rest">
</activity>
</facility>
<facility id="935" x="21.321592802835276 " y="52.46988839503582">
<activity type="rest">
</activity>
</facility>
<facility id="936" x="19.30411783960124 " y="53.83510223296927">
<activity type="rest">
</activity>
</facility>
<facility id="815" x="20.152477699903177 " y="51.65648375868771">
<activity type="rest">
</activity>
</facility>
<facility id="937" x="15.110033554677539 " y="51.18971031154698">
<activity type="rest">
</activity>
</facility>
<facility id="816" x="20.179786522179967 " y="51.67155936928208">
<activity type="rest">
</activity>
</facility>
<facility id="938" x="15.10874770012898 " y="51.18865218256107">
<activity type="rest">
</activity>
</facility>
<facility id="817" x="20.23206011711173 " y="51.73647836799681">
<activity type="rest">
</activity>
</facility>
<facility id="939" x="15.59714747319038 " y="51.31794800595577">
<activity type="rest">
</activity>
</facility>
<facility id="818" x="20.464566496892736 " y="51.927433527344284">
<activity type="rest">
</activity>
</facility>
<facility id="819" x="19.414971490636308 " y="54.13729776933703">
<activity type="rest">
</activity>
</facility>
<facility id="940" x="17.254940586345448 " y="50.84459872723479">
<activity type="rest">
</activity>
</facility>
<facility id="820" x="19.452980505048554 " y="54.13607913195031">
<activity type="rest">
</activity>
</facility>
<facility id="941" x="17.252033583363158 " y="50.8455807862336">
<activity type="rest">
</activity>
</facility>
<facility id="700" x="18.855999999844006 " y="52.76001662045931">
<activity type="rest">
</activity>
</facility>
<facility id="821" x="19.50016119620881 " y="54.10858709194072">
<activity type="rest">
</activity>
</facility>
<facility id="942" x="15.344524563760391 " y="51.24689304193605">
<activity type="rest">
</activity>
</facility>
<facility id="943" x="15.346250417979082 " y="51.248700137250786">
<activity type="rest">
</activity>
</facility>
<facility id="822" x="19.61132000000032 " y="54.077690000004935">
<activity type="rest">
</activity>
</facility>
<facility id="701" x="18.928483332366778 " y="52.65598328719838">
<activity type="rest">
</activity>
</facility>
<facility id="702" x="18.9329999997631 " y="52.655733287915986">
<activity type="rest">
</activity>
</facility>
<facility id="823" x="19.733903041172184 " y="53.88936654370056">
<activity type="rest">
</activity>
</facility>
<facility id="944" x="17.0757591249808 " y="50.9574115071372">
<activity type="rest">
</activity>
</facility>
<facility id="945" x="17.07923426810205 " y="50.955003739418565">
<activity type="rest">
</activity>
</facility>
<facility id="824" x="19.733701149203764 " y="53.88462926991717">
<activity type="rest">
</activity>
</facility>
<facility id="703" x="19.01098333307454 " y="52.56809995431237">
<activity type="rest">
</activity>
</facility>
<facility id="825" x="19.789458570944944 " y="53.804504432551916">
<activity type="rest">
</activity>
</facility>
<facility id="704" x="19.01498333368259 " y="52.567099953831836">
<activity type="rest">
</activity>
</facility>
<facility id="946" x="17.197709926588303 " y="51.22555259961208">
<activity type="rest">
</activity>
</facility>
<facility id="947" x="17.20901302462251 " y="51.22619394428135">
<activity type="rest">
</activity>
</facility>
<facility id="826" x="19.790565141830395 " y="53.80237249236687">
<activity type="rest">
</activity>
</facility>
<facility id="705" x="19.18909999970561 " y="52.46524995413704">
<activity type="rest">
</activity>
</facility>
<facility id="827" x="20.041413882811153 " y="53.64146103868022">
<activity type="rest">
</activity>
</facility>
<facility id="706" x="19.192866665779555 " y="52.46501662114266">
<activity type="rest">
</activity>
</facility>
<facility id="948" x="17.496156524541103 " y="51.2386672283039">
<activity type="rest">
</activity>
</facility>
<facility id="949" x="17.502575277060195 " y="51.24161549846992">
<activity type="rest">
</activity>
</facility>
<facility id="707" x="19.355516666495475 " y="52.339883287240255">
<activity type="rest">
</activity>
</facility>
<facility id="828" x="20.046046296084214 " y="53.637459858303494">
<activity type="rest">
</activity>
</facility>
<facility id="829" x="20.30170409750561 " y="53.5114303997854">
<activity type="rest">
</activity>
</facility>
<facility id="708" x="19.356816665785857 " y="52.33991662112276">
<activity type="rest">
</activity>
</facility>
<facility id="709" x="18.630901349456828 " y="54.19258319875693">
<activity type="rest">
</activity>
</facility>
<facility id="950" x="17.730342633276596 " y="51.29415260766093">
<activity type="rest">
</activity>
</facility>
<facility id="830" x="20.320796508294634 " y="53.48189224376098">
<activity type="rest">
</activity>
</facility>
<facility id="951" x="17.744098419620023 " y="51.29700042708667">
<activity type="rest">
</activity>
</facility>
<facility id="952" x="15.627917375077748 " y="51.33860931218798">
<activity type="rest">
</activity>
</facility>
<facility id="710" x="18.633441755435918 " y="54.18970315306566">
<activity type="rest">
</activity>
</facility>
<facility id="831" x="20.33708254028615 " y="53.413289963366616">
<activity type="rest">
</activity>
</facility>
<facility id="832" x="17.410144121993994 " y="50.76632611441331">
<activity type="rest">
</activity>
</facility>
<facility id="953" x="15.792303128934906 " y="51.27428745950312">
<activity type="rest">
</activity>
</facility>
<facility id="711" x="18.629905279195423 " y="53.88663916640682">
<activity type="rest">
</activity>
</facility>
<facility id="954" x="15.974482191279074 " y="51.22146924010348">
<activity type="rest">
</activity>
</facility>
<facility id="833" x="17.435007028094127 " y="50.75450699980418">
<activity type="rest">
</activity>
</facility>
<facility id="712" x="18.631723414515438 " y="53.889608767971836">
<activity type="rest">
</activity>
</facility>
<facility id="834" x="17.658687595510724 " y="50.67490480336459">
<activity type="rest">
</activity>
</facility>
<facility id="713" x="18.801895165400463 " y="54.30245840909577">
<activity type="rest">
</activity>
</facility>
<facility id="955" x="15.981044398939742 " y="51.21883494565826">
<activity type="rest">
</activity>
</facility>
<facility id="956" x="16.231806572814882 " y="51.15313814001091">
<activity type="rest">
</activity>
</facility>
<facility id="714" x="19.018539959927292 " y="50.40586400029649">
<activity type="rest">
</activity>
</facility>
<facility id="835" x="17.652129671991105 " y="50.677767026407246">
<activity type="rest">
</activity>
</facility>
<facility id="836" x="17.85849828772135 " y="50.57028498257826">
<activity type="rest">
</activity>
</facility>
<facility id="957" x="14.655419455784997 " y="52.324460280534254">
<activity type="rest">
</activity>
</facility>
<facility id="715" x="19.01440405113462 " y="50.4041240159451">
<activity type="rest">
</activity>
</facility>
<facility id="837" x="17.86264664198277 " y="50.56816153138514">
<activity type="rest">
</activity>
</facility>
<facility id="716" x="18.74557959715853 " y="50.37185797249409">
<activity type="rest">
</activity>
</facility>
<facility id="958" x="14.650693872933477 " y="52.32469205952467">
<activity type="rest">
</activity>
</facility>
<facility id="838" x="18.163287048249952 " y="50.46219974754871">
<activity type="rest">
</activity>
</facility>
<facility id="959" x="15.160043858497524 " y="52.32591349454517">
<activity type="rest">
</activity>
</facility>
<facility id="717" x="18.738711827002298 " y="50.37003613221697">
<activity type="rest">
</activity>
</facility>
<facility id="718" x="18.701553506082945 " y="50.197427894557045">
<activity type="rest">
</activity>
</facility>
<facility id="839" x="18.159140949166005 " y="50.4620853909476">
<activity type="rest">
</activity>
</facility>
<facility id="719" x="18.702879465167765 " y="50.195284285668386">
<activity type="rest">
</activity>
</facility>
<facility id="960" x="15.165594860984621 " y="52.325939021016154">
<activity type="rest">
</activity>
</facility>
<facility id="840" x="16.189892542484902 " y="52.367729912192615">
<activity type="rest">
</activity>
</facility>
<facility id="961" x="15.785319680666323 " y="52.31404526517263">
<activity type="rest">
</activity>
</facility>
<facility id="841" x="16.189892542484902 " y="52.367729912192615">
<activity type="rest">
</activity>
</facility>
<facility id="720" x="18.66306082663232 " y="50.07587499257374">
<activity type="rest">
</activity>
</facility>
<facility id="962" x="15.779401909836041 " y="52.311972662182335">
<activity type="rest">
</activity>
</facility>
<facility id="963" x="15.118086118886549 " y="52.7876096480234">
<activity type="rest">
</activity>
</facility>
<facility id="842" x="16.475620920676146 " y="52.38718921768755">
<activity type="rest">
</activity>
</facility>
<facility id="721" x="18.663910729601298 " y="50.07386364291806">
<activity type="rest">
</activity>
</facility>
<facility id="722" x="18.51370885808796 " y="49.95784159432211">
<activity type="rest">
</activity>
</facility>
<facility id="843" x="16.475620920676146 " y="52.38718921768755">
<activity type="rest">
</activity>
</facility>
<facility id="964" x="15.119748622763858 " y="52.78544159869566">
<activity type="rest">
</activity>
</facility>
<facility id="844" x="16.732326779233478 " y="52.35070416600938">
<activity type="rest">
</activity>
</facility>
<facility id="965" x="15.539976934165463 " y="52.54242198531734">
<activity type="rest">
</activity>
</facility>
<facility id="723" x="18.388731645391147 " y="50.42555905445045">
<activity type="rest">
</activity>
</facility>
<facility id="845" x="16.732326779233478 " y="52.35070416600938">
<activity type="rest">
</activity>
</facility>
<facility id="724" x="18.393660079989047 " y="50.42360684984446">
<activity type="rest">
</activity>
</facility>
<facility id="966" x="15.542063015480112 " y="52.542063026141975">
<activity type="rest">
</activity>
</facility>
<facility id="967" x="15.57519801204267 " y="52.136104991441975">
<activity type="rest">
</activity>
</facility>
<facility id="846" x="17.092475304615625 " y="52.32851178712532">
<activity type="rest">
</activity>
</facility>
<facility id="725" x="18.551829575559502 " y="50.308750947784134">
<activity type="rest">
</activity>
</facility>
<facility id="726" x="18.550082684433253 " y="50.3138617573507">
<activity type="rest">
</activity>
</facility>
<facility id="968" x="15.577086068746393 " y="52.13486703000304">
<activity type="rest">
</activity>
</facility>
<facility id="847" x="17.092475304615625 " y="52.32851178712532">
<activity type="rest">
</activity>
</facility>
<facility id="848" x="17.41999223741011 " y="52.318057654565166">
<activity type="rest">
</activity>
</facility>
<facility id="969" x="15.587081523041977 " y="51.906018381547725">
<activity type="rest">
</activity>
</facility>
<facility id="727" x="18.884469883064913 " y="50.25126638447741">
<activity type="rest">
</activity>
</facility>
<facility id="728" x="18.879514187212536 " y="50.252376901961185">
<activity type="rest">
</activity>
</facility>
<facility id="849" x="17.41999223741011 " y="52.318057654565166">
<activity type="rest">
</activity>
</facility>
<facility id="729" x="19.295374305680845 " y="50.14846974533148">
<activity type="rest">
</activity>
</facility>
<facility id="970" x="14.827649611368932 " y="51.64876018384073">
<activity type="rest">
</activity>
</facility>
<facility id="971" x="14.829130983542314 " y="51.64793778605092">
<activity type="rest">
</activity>
</facility>
<facility id="850" x="17.65282578196971 " y="52.2943506202347">
<activity type="rest">
</activity>
</facility>
<facility id="730" x="19.30257003020543 " y="50.148361257136116">
<activity type="rest">
</activity>
</facility>
<facility id="851" x="17.65282578196971 " y="52.2943506202347">
<activity type="rest">
</activity>
</facility>
<facility id="852" x="17.788376234662877 " y="52.26136254189584">
<activity type="rest">
</activity>
</facility>
<facility id="731" x="19.218243823632402 " y="50.29287991526508">
<activity type="rest">
</activity>
</facility>
<facility id="853" x="17.951276883079878 " y="52.22174339632881">
<activity type="rest">
</activity>
</facility>
<facility id="732" x="19.108237772370426 " y="50.14752639035383">
<activity type="rest">
</activity>
</facility>
<facility id="733" x="19.19494352194262 " y="50.268136442760046">
<activity type="rest">
</activity>
</facility>
<facility id="854" x="18.122914665556724 " y="52.17965719674718">
<activity type="rest">
</activity>
</facility>
<facility id="855" x="18.122914665556724 " y="52.17965719674718">
<activity type="rest">
</activity>
</facility>
<facility id="734" x="19.104788528074856 " y="50.145181459667626">
<activity type="rest">
</activity>
</facility>
<facility id="856" x="18.277667775888585 " y="52.152351385653404">
<activity type="rest">
</activity>
</facility>
<facility id="735" x="18.92014587798576 " y="49.8123587088653">
<activity type="rest">
</activity>
</facility>
<facility id="857" x="18.45689085476958 " y="52.15245369696642">
<activity type="rest">
</activity>
</facility>
<facility id="736" x="18.8873010770278 " y="49.80493323725012">
<activity type="rest">
</activity>
</facility>
<facility id="858" x="18.45689085476958 " y="52.15245369696642">
<activity type="rest">
</activity>
</facility>
<facility id="737" x="18.832882998991824 " y="49.7950967248169">
<activity type="rest">
</activity>
</facility>
<facility id="738" x="18.704237306913924 " y="49.76541024200818">
<activity type="rest">
</activity>
</facility>
<facility id="859" x="18.63440172706595 " y="52.13483885782132">
<activity type="rest">
</activity>
</facility>
<facility id="739" x="18.698114359397426 " y="49.764989579650916">
<activity type="rest">
</activity>
</facility>
<facility id="860" x="18.63440172706595 " y="52.13483885782132">
<activity type="rest">
</activity>
</facility>
<facility id="861" x="18.771905659360513 " y="52.09732655295553">
<activity type="rest">
</activity>
</facility>
<facility id="740" x="18.654395201846025 " y="49.76600106507059">
<activity type="rest">
</activity>
</facility>
<facility id="862" x="18.771905659360513 " y="52.09732655295553">
<activity type="rest">
</activity>
</facility>
<facility id="741" x="18.649604046835996 " y="49.76586071524063">
<activity type="rest">
</activity>
</facility>
<facility id="863" x="17.47205052783693 " y="52.50751350273856">
<activity type="rest">
</activity>
</facility>
<facility id="742" x="20.818145272367385 " y="51.03189561717651">
<activity type="rest">
</activity>
</facility>
<facility id="743" x="20.742914209124756 " y="50.97496496836331">
<activity type="rest">
</activity>
</facility>
<facility id="864" x="17.47205052783693 " y="52.50751350273856">
<activity type="rest">
</activity>
</facility>
<facility id="865" x="17.335255847321577 " y="52.43463398429034">
<activity type="rest">
</activity>
</facility>
<facility id="744" x="20.483188330532887 " y="50.841367900761675">
<activity type="rest">
</activity>
</facility>
<facility id="866" x="17.335255847321577 " y="52.43463398429034">
<activity type="rest">
</activity>
</facility>
<facility id="745" x="20.484104167451918 " y="50.842451164658186">
<activity type="rest">
</activity>
</facility>
<facility id="746" x="20.739707114293253 " y="50.9728288966498">
<activity type="rest">
</activity>
</facility>
<facility id="867" x="17.201857456082372 " y="52.36474098756861">
<activity type="rest">
</activity>
</facility>
<facility id="747" x="20.208556721953745 " y="50.560834910912035">
<activity type="rest">
</activity>
</facility>
<facility id="868" x="17.201857456082372 " y="52.36474098756861">
<activity type="rest">
</activity>
</facility>
<facility id="869" x="16.753847492815883 " y="51.691137785736366">
<activity type="rest">
</activity>
</facility>
<facility id="748" x="20.25189694511259 " y="50.596154661445425">
<activity type="rest">
</activity>
</facility>
<facility id="749" x="19.75968724437324 " y="50.0790279997631">
<activity type="rest">
</activity>
</facility>
<facility id="870" x="16.753847492815883 " y="51.691137785736366">
<activity type="rest">
</activity>
</facility>
<facility id="871" x="16.753847492815883 " y="51.691137785736366">
<activity type="rest">
</activity>
</facility>
<facility id="750" x="19.772984283143572 " y="50.08134807210412">
<activity type="rest">
</activity>
</facility>
<facility id="872" x="16.753847492815883 " y="51.691137785736366">
<activity type="rest">
</activity>
</facility>
<facility id="751" x="20.338134564202313 " y="49.98853157988656">
<activity type="rest">
</activity>
</facility>
<facility id="752" x="20.342453446572 " y="49.98779210004025">
<activity type="rest">
</activity>
</facility>
<facility id="873" x="17.62326195118992 " y="52.59741267211993">
<activity type="rest">
</activity>
</facility>
<facility id="874" x="17.627943088825596 " y="52.60509167627656">
<activity type="rest">
</activity>
</facility>
<facility id="753" x="20.887547410752568 " y="50.04330206709473">
<activity type="rest">
</activity>
</facility>
<facility id="875" x="16.76551171376581 " y="52.371731707508914">
<activity type="rest">
</activity>
</facility>
<facility id="754" x="20.891846845868084 " y="50.0406508365242">
<activity type="rest">
</activity>
</facility>
<facility id="755" x="20.139430622375546 " y="50.016770042077994">
<activity type="rest">
</activity>
</facility>
<facility id="876" x="16.765122713436007 " y="52.37364375464606">
<activity type="rest">
</activity>
</facility>
<facility id="756" x="20.14100150819751 " y="50.01758301661112">
<activity type="rest">
</activity>
</facility>
<facility id="877" x="18.216787401232096 " y="51.27394581926497">
<activity type="rest">
</activity>
</facility>
<facility id="757" x="20.62135623230496 " y="49.99779395981439">
<activity type="rest">
</activity>
</facility>
<facility id="878" x="18.262169702514665 " y="51.30382551469861">
<activity type="rest">
</activity>
</facility>
<facility id="758" x="20.611560053656348 " y="49.9982792120884">
<activity type="rest">
</activity>
</facility>
<facility id="879" x="21.224849106229488 " y="50.09873024498572">
<activity type="rest">
</activity>
</facility>
<facility id="759" x="22.250997875914866 " y="51.38896995638421">
<activity type="rest">
</activity>
</facility>
<facility id="880" x="21.219838391450175 " y="50.09657819097785">
<activity type="rest">
</activity>
</facility>
<facility id="760" x="22.24492622212964 " y="51.38994146212473">
<activity type="rest">
</activity>
</facility>
<facility id="881" x="21.51517024739563 " y="50.09614521417888">
<activity type="rest">
</activity>
</facility>
<facility id="761" x="19.487437720775084 " y="52.18776596310867">
<activity type="rest">
</activity>
</facility>
<facility id="882" x="21.522324102483182 " y="50.097591591600384">
<activity type="rest">
</activity>
</facility>
<facility id="762" x="19.487258768522743 " y="52.18105956326599">
<activity type="rest">
</activity>
</facility>
<facility id="883" x="21.84184175912642 " y="50.11064086562693">
<activity type="rest">
</activity>
</facility>
<facility id="884" x="21.8484612728414 " y="50.10971366144427">
<activity type="rest">
</activity>
</facility>
<facility id="763" x="19.543161416941615 " y="52.00723712139221">
<activity type="rest">
</activity>
</facility>
<facility id="885" x="19.00734037039711 " y="49.85638002444386">
<activity type="rest">
</activity>
</facility>
<facility id="764" x="19.544193628608916 " y="52.00581746152749">
<activity type="rest">
</activity>
</facility>
<facility id="886" x="19.007247443743847 " y="49.856603785120875">
<activity type="rest">
</activity>
</facility>
<facility id="765" x="19.65888918622992 " y="51.84105176524779">
<activity type="rest">
</activity>
</facility>
<facility id="766" x="19.65888918622992 " y="51.84105176524779">
<activity type="rest">
</activity>
</facility>
<facility id="887" x="19.008998356639715 " y="49.869182772587344">
<activity type="rest">
</activity>
</facility>
<facility id="767" x="19.603729260149123 " y="51.702439838523404">
<activity type="rest">
</activity>
</facility>
<facility id="888" x="19.008941706050916 " y="49.869200411007284">
<activity type="rest">
</activity>
</facility>
<facility id="768" x="19.603729260149123 " y="51.702439838523404">
<activity type="rest">
</activity>
</facility>
<facility id="889" x="22.60610957550687 " y="49.994754390394895">
<activity type="rest">
</activity>
</facility>
<facility id="769" x="18.88048440731321 " y="52.034215125602245">
<activity type="rest">
</activity>
</facility>
<facility id="890" x="22.605074502593187 " y="49.997851675519044">
<activity type="rest">
</activity>
</facility>
<facility id="891" x="22.74005691732561 " y="49.919741680395894">
<activity type="rest">
</activity>
</facility>
<facility id="770" x="18.87586893818621 " y="52.03542339980264">
<activity type="rest">
</activity>
</facility>
<facility id="771" x="19.18030091580488 " y="51.94412344774544">
<activity type="rest">
</activity>
</facility>
<facility id="892" x="22.740818370187927 " y="49.91671661493054">
<activity type="rest">
</activity>
</facility>
<facility id="893" x="23.024991550086103 " y="49.94861137401742">
<activity type="rest">
</activity>
</facility>
<facility id="772" x="19.175183346336006 " y="51.94536648022237">
<activity type="rest">
</activity>
</facility>
<facility id="894" x="23.02083279808353 " y="49.946939059487946">
<activity type="rest">
</activity>
</facility>
<facility id="773" x="19.410325509024794 " y="51.91887714595485">
<activity type="rest">
</activity>
</facility>
<facility id="895" x="14.582491086435093 " y="53.305673665168946">
<activity type="rest">
</activity>
</facility>
<facility id="774" x="19.406284077479565 " y="51.919283287085015">
<activity type="rest">
</activity>
</facility>
<facility id="775" x="19.562183055401313 " y="51.89211893284647">
<activity type="rest">
</activity>
</facility>
<facility id="896" x="14.585158340377678 " y="53.30621311715716">
<activity type="rest">
</activity>
</facility>
<facility id="776" x="19.55398583881425 " y="51.89326621695196">
<activity type="rest">
</activity>
</facility>
<facility id="897" x="14.711303452192139 " y="53.15178162847545">
<activity type="rest">
</activity>
</facility>
<facility id="898" x="14.713491051079748 " y="53.15240334580739">
<activity type="rest">
</activity>
</facility>
<facility id="777" x="19.71101699347032 " y="51.8997937552378">
<activity type="rest">
</activity>
</facility>
<facility id="778" x="19.702729653725093 " y="51.898125519841415">
<activity type="rest">
</activity>
</facility>
<facility id="899" x="14.866699531877197 " y="53.051775232915844">
<activity type="rest">
</activity>
</facility>
<facility id="779" x="20.006577663059904 " y="52.029871840735055">
<activity type="rest">
</activity>
</facility>
<facility id="780" x="20.000548666279172 " y="52.02622262852848">
<activity type="rest">
</activity>
</facility>
<facility id="781" x="20.240263050278145 " y="52.07540891694295">
<activity type="rest">
</activity>
</facility>
<facility id="782" x="20.233682266022893 " y="52.075027869994685">
<activity type="rest">
</activity>
</facility>
<facility id="783" x="18.52186578607032 " y="51.35562308434817">
<activity type="rest">
</activity>
</facility>
<facility id="784" x="18.525132898756752 " y="51.358290691211174">
<activity type="rest">
</activity>
</facility>
<facility id="785" x="18.69554882289748 " y="51.525724890249904">
<activity type="rest">
</activity>
</facility>
<facility id="786" x="18.69550017980619 " y="51.52980491446334">
<activity type="rest">
</activity>
</facility>
<facility id="787" x="18.93342718142892 " y="51.57563329866756">
<activity type="rest">
</activity>
</facility>
<facility id="788" x="18.940134060488973 " y="51.57537989816524">
<activity type="rest">
</activity>
</facility>
<facility id="789" x="19.085864827280094 " y="51.55317369791582">
<activity type="rest">
</activity>
</facility>
<facility id="790" x="19.08586486331123 " y="51.553173682273616">
<activity type="rest">
</activity>
</facility>
<facility id="791" x="19.43982804046718 " y="51.63366047097041">
<activity type="rest">
</activity>
</facility>
<facility id="792" x="19.43506539851009 " y="51.63319244806666">
<activity type="rest">
</activity>
</facility>
<facility id="793" x="19.81795270440998 " y="51.48428833724677">
<activity type="rest">
</activity>
</facility>
<facility id="794" x="19.826919414431472 " y="51.49013919380501">
<activity type="rest">
</activity>
</facility>
<facility id="795" x="20.317469634729157 " y="51.81949447978999">
<activity type="rest">
</activity>
</facility>
<facility id="796" x="19.680423002188398 " y="51.44199124218794">
<activity type="rest">
</activity>
</facility>
<facility id="797" x="19.680423002188398 " y="51.44199124218794">
<activity type="rest">
</activity>
</facility>
<facility id="798" x="19.780782062872007 " y="51.459931400228996">
<activity type="rest">
</activity>
</facility>
<facility id="799" x="19.86886644432226 " y="51.50285171685435">