<?xml version="1.0"?>
<!DOCTYPE facilities SYSTEM "http://www.matsim.org/files/dtd/facilities_v1.dtd">
<facilities name="mopy" >
<facility id="230" x="18.668691409875 " y="53.403316472419">
<activity type="rest">
</activity>
</facility>
<facility id="231" x="18.666547880456 " y="53.40138343465">
<activity type="rest">
</activity>
</facility>
<facility id="110" x="19.439828053678 " y="51.633660489667">
<activity type="rest">
</activity>
</facility>
<facility id="232" x="18.777961625232 " y="54.036108931849">
<activity type="rest">
</activity>
</facility>
<facility id="111" x="19.435065399872 " y="51.633192450752">
<activity type="rest">
</activity>
</facility>
<facility id="233" x="18.775133691152 " y="54.035920179448">
<activity type="rest">
</activity>
</facility>
<facility id="112" x="19.817952670821 " y="51.484288321999">
<activity type="rest">
</activity>
</facility>
<facility id="234" x="20.611131713925 " y="52.445711761703">
<activity type="rest">
</activity>
</facility>
<facility id="113" x="19.826919375548 " y="51.490139156991">
<activity type="rest">
</activity>
</facility>
<facility id="114" x="20.317469660641 " y="51.819494512676">
<activity type="rest">
</activity>
</facility>
<facility id="235" x="20.854663730741 " y="51.879700949472">
<activity type="rest">
</activity>
</facility>
<facility id="236" x="20.851132323004 " y="51.867640357441">
<activity type="rest">
</activity>
</facility>
<facility id="115" x="19.680423002188 " y="51.44199124219">
<activity type="rest">
</activity>
</facility>
<facility id="237" x="20.877768771608 " y="51.834215465495">
<activity type="rest">
</activity>
</facility>
<facility id="116" x="19.680423002188 " y="51.44199124219">
<activity type="rest">
</activity>
</facility>
<facility id="117" x="19.780782062872 " y="51.459931400231">
<activity type="rest">
</activity>
</facility>
<facility id="238" x="20.87715305015 " y="51.833661306843">
<activity type="rest">
</activity>
</facility>
<facility id="239" x="20.909238379225 " y="51.746821678252">
<activity type="rest">
</activity>
</facility>
<facility id="118" x="19.868866444322 " y="51.502851716856">
<activity type="rest">
</activity>
</facility>
<facility id="119" x="19.878574869535 " y="51.505337209281">
<activity type="rest">
</activity>
</facility>
<facility id="10" x="18.723666596035 " y="53.258833286947">
<activity type="rest">
</activity>
</facility>
<facility id="11" x="18.725416667979 " y="53.25813327473">
<activity type="rest">
</activity>
</facility>
<facility id="12" x="18.742950003899 " y="53.142333325217">
<activity type="rest">
</activity>
</facility>
<facility id="13" x="18.741799980876 " y="53.143483244103">
<activity type="rest">
</activity>
</facility>
<facility id="14" x="18.73450005504 " y="53.013083290675">
<activity type="rest">
</activity>
</facility>
<facility id="15" x="18.735283383095 " y="53.010749958538">
<activity type="rest">
</activity>
</facility>
<facility id="16" x="18.721499991903 " y="52.902299953109">
<activity type="rest">
</activity>
</facility>
<facility id="17" x="18.724083393069 " y="52.899299942417">
<activity type="rest">
</activity>
</facility>
<facility id="18" x="18.853316675801 " y="52.762549920518">
<activity type="rest">
</activity>
</facility>
<facility id="19" x="18.856000042888 " y="52.760016603427">
<activity type="rest">
</activity>
</facility>
<facility id="240" x="20.911423966254 " y="51.745552360503">
<activity type="rest">
</activity>
</facility>
<facility id="241" x="20.929944908045 " y="51.698287373151">
<activity type="rest">
</activity>
</facility>
<facility id="120" x="19.886899421415 " y="51.506089746636">
<activity type="rest">
</activity>
</facility>
<facility id="121" x="19.910760587424 " y="51.51627882792">
<activity type="rest">
</activity>
</facility>
<facility id="242" x="20.932881313429 " y="51.693270796193">
<activity type="rest">
</activity>
</facility>
<facility id="0" x="22.750282776102 " y="53.13575791982">
<activity type="rest">
</activity>
</facility>
<facility id="243" x="20.851132323004 " y="51.867640357441">
<activity type="rest">
</activity>
</facility>
<facility id="122" x="20.130348809327 " y="51.642444560681">
<activity type="rest">
</activity>
</facility>
<facility id="1" x="22.793514325843 " y="53.144825804546">
<activity type="rest">
</activity>
</facility>
<facility id="244" x="20.973849315589 " y="51.620115966312">
<activity type="rest">
</activity>
</facility>
<facility id="123" x="20.190758220181 " y="51.679423890672">
<activity type="rest">
</activity>
</facility>
<facility id="2" x="22.936158658028 " y="53.164933357201">
<activity type="rest">
</activity>
</facility>
<facility id="124" x="20.231012926304 " y="51.73417747434">
<activity type="rest">
</activity>
</facility>
<facility id="3" x="22.825544997752 " y="53.997574106143">
<activity type="rest">
</activity>
</facility>
<facility id="245" x="21.007416075408 " y="51.576714875168">
<activity type="rest">
</activity>
</facility>
<facility id="4" x="22.355205083291 " y="53.039765449722">
<activity type="rest">
</activity>
</facility>
<facility id="125" x="20.231012926304 " y="51.73417747434">
<activity type="rest">
</activity>
</facility>
<facility id="246" x="21.018851545161 " y="51.570397075876">
<activity type="rest">
</activity>
</facility>
<facility id="247" x="21.099810245232 " y="51.52356798149">
<activity type="rest">
</activity>
</facility>
<facility id="5" x="22.398315045257 " y="53.05793196244">
<activity type="rest">
</activity>
</facility>
<facility id="126" x="20.381417552332 " y="51.861926984201">
<activity type="rest">
</activity>
</facility>
<facility id="248" x="21.05968812807 " y="51.541930507134">
<activity type="rest">
</activity>
</facility>
<facility id="6" x="18.640349985172 " y="53.628533286746">
<activity type="rest">
</activity>
</facility>
<facility id="127" x="19.780497092082 " y="51.46036899951">
<activity type="rest">
</activity>
</facility>
<facility id="128" x="19.780497092082 " y="51.46036899951">
<activity type="rest">
</activity>
</facility>
<facility id="7" x="18.639533273553 " y="53.644849977534">
<activity type="rest">
</activity>
</facility>
<facility id="249" x="20.492405611196 " y="51.951813512799">
<activity type="rest">
</activity>
</facility>
<facility id="129" x="19.824429464014 " y="51.488738859228">
<activity type="rest">
</activity>
</facility>
<facility id="8" x="18.708283400731 " y="53.342766582243">
<activity type="rest">
</activity>
</facility>
<facility id="9" x="18.709916661251 " y="53.345299911593">
<activity type="rest">
</activity>
</facility>
<facility id="20" x="18.928483319027 " y="52.655983306076">
<activity type="rest">
</activity>
</facility>
<facility id="21" x="18.932999965806 " y="52.655733251928">
<activity type="rest">
</activity>
</facility>
<facility id="22" x="19.010983386215 " y="52.568099993877">
<activity type="rest">
</activity>
</facility>
<facility id="23" x="19.014983323339 " y="52.567099916964">
<activity type="rest">
</activity>
</facility>
<facility id="24" x="19.189100067366 " y="52.465249937843">
<activity type="rest">
</activity>
</facility>
<facility id="25" x="19.192866637733 " y="52.465016605002">
<activity type="rest">
</activity>
</facility>
<facility id="26" x="19.355516624105 " y="52.339883310751">
<activity type="rest">
</activity>
</facility>
<facility id="27" x="19.356816727472 " y="52.339916623636">
<activity type="rest">
</activity>
</facility>
<facility id="28" x="18.630901349457 " y="54.192583198757">
<activity type="rest">
</activity>
</facility>
<facility id="29" x="18.633441755436 " y="54.189703153066">
<activity type="rest">
</activity>
</facility>
<facility id="250" x="18.396127452909 " y="53.318559889016">
<activity type="rest">
</activity>
</facility>
<facility id="251" x="20.590329576569 " y="52.003760494324">
<activity type="rest">
</activity>
</facility>
<facility id="130" x="19.840029864355 " y="51.49484013711">
<activity type="rest">
</activity>
</facility>
<facility id="252" x="20.672601741914 " y="52.028263282277">
<activity type="rest">
</activity>
</facility>
<facility id="131" x="19.875710860832 " y="51.505133760168">
<activity type="rest">
</activity>
</facility>
<facility id="253" x="20.697774983009 " y="52.03981410724">
<activity type="rest">
</activity>
</facility>
<facility id="132" x="19.906015532694 " y="51.514511874308">
<activity type="rest">
</activity>
</facility>
<facility id="254" x="21.247586809661 " y="52.441840103895">
<activity type="rest">
</activity>
</facility>
<facility id="133" x="19.935829768464 " y="51.524429729677">
<activity type="rest">
</activity>
</facility>
<facility id="255" x="21.293570015642 " y="52.458318122617">
<activity type="rest">
</activity>
</facility>
<facility id="134" x="20.041276547763 " y="51.589897930684">
<activity type="rest">
</activity>
</facility>
<facility id="135" x="20.152477699903 " y="51.656483758689">
<activity type="rest">
</activity>
</facility>
<facility id="256" x="21.321592802836 " y="52.469888395037">
<activity type="rest">
</activity>
</facility>
<facility id="257" x="19.304117838015 " y="53.835102239118">
<activity type="rest">
</activity>
</facility>
<facility id="136" x="20.17978652218 " y="51.671559369284">
<activity type="rest">
</activity>
</facility>
<facility id="258" x="15.110033554676 " y="51.189710311548">
<activity type="rest">
</activity>
</facility>
<facility id="137" x="20.232060117112 " y="51.736478367998">
<activity type="rest">
</activity>
</facility>
<facility id="138" x="20.464566496893 " y="51.927433527346">
<activity type="rest">
</activity>
</facility>
<facility id="259" x="15.108747700127 " y="51.188652182562">
<activity type="rest">
</activity>
</facility>
<facility id="139" x="19.414971415868 " y="54.137297794769">
<activity type="rest">
</activity>
</facility>
<facility id="30" x="18.629905279196 " y="53.886639166408">
<activity type="rest">
</activity>
</facility>
<facility id="31" x="18.631723414516 " y="53.889608767973">
<activity type="rest">
</activity>
</facility>
<facility id="32" x="18.801895165401 " y="54.302458409096">
<activity type="rest">
</activity>
</facility>
<facility id="33" x="19.018539959927 " y="50.405864000298">
<activity type="rest">
</activity>
</facility>
<facility id="34" x="19.014404051135 " y="50.404124015947">
<activity type="rest">
</activity>
</facility>
<facility id="35" x="18.745579597159 " y="50.371857972496">
<activity type="rest">
</activity>
</facility>
<facility id="36" x="18.738711827002 " y="50.370036132219">
<activity type="rest">
</activity>
</facility>
<facility id="37" x="18.701553506083 " y="50.197427894559">
<activity type="rest">
</activity>
</facility>
<facility id="38" x="18.702879465168 " y="50.19528428567">
<activity type="rest">
</activity>
</facility>
<facility id="39" x="18.663060826632 " y="50.075874992576">
<activity type="rest">
</activity>
</facility>
<facility id="260" x="15.597147473189 " y="51.317948005957">
<activity type="rest">
</activity>
</facility>
<facility id="140" x="19.452980446989 " y="54.136079142958">
<activity type="rest">
</activity>
</facility>
<facility id="261" x="17.254940586345 " y="50.844598727236">
<activity type="rest">
</activity>
</facility>
<facility id="262" x="17.252033583363 " y="50.845580786235">
<activity type="rest">
</activity>
</facility>
<facility id="141" x="19.500161156863 " y="54.108587128067">
<activity type="rest">
</activity>
</facility>
<facility id="263" x="15.344524563759 " y="51.246893041937">
<activity type="rest">
</activity>
</facility>
<facility id="142" x="19.611320033852 " y="54.077689999941">
<activity type="rest">
</activity>
</facility>
<facility id="264" x="15.346250417978 " y="51.248700137252">
<activity type="rest">
</activity>
</facility>
<facility id="143" x="19.733903088098 " y="53.889366529029">
<activity type="rest">
</activity>
</facility>
<facility id="265" x="17.075759124981 " y="50.957411507139">
<activity type="rest">
</activity>
</facility>
<facility id="144" x="19.733701099832 " y="53.884629231558">
<activity type="rest">
</activity>
</facility>
<facility id="266" x="17.079234268102 " y="50.95500373942">
<activity type="rest">
</activity>
</facility>
<facility id="145" x="19.789458640234 " y="53.804504401527">
<activity type="rest">
</activity>
</facility>
<facility id="146" x="19.79056519512 " y="53.802372499209">
<activity type="rest">
</activity>
</facility>
<facility id="267" x="17.197709926588 " y="51.225552599614">
<activity type="rest">
</activity>
</facility>
<facility id="147" x="20.041413958229 " y="53.641461029034">
<activity type="rest">
</activity>
</facility>
<facility id="268" x="17.209013024622 " y="51.226193944283">
<activity type="rest">
</activity>
</facility>
<facility id="148" x="20.046046341019 " y="53.637459839929">
<activity type="rest">
</activity>
</facility>
<facility id="269" x="17.496156524541 " y="51.238667228305">
<activity type="rest">
</activity>
</facility>
<facility id="149" x="20.301704097505 " y="53.511430399787">
<activity type="rest">
</activity>
</facility>
<facility id="40" x="18.663910729601 " y="50.07386364292">
<activity type="rest">
</activity>
</facility>
<facility id="41" x="18.513708858088 " y="49.957841594324">
<activity type="rest">
</activity>
</facility>
<facility id="42" x="18.388731645391 " y="50.425559054452">
<activity type="rest">
</activity>
</facility>
<facility id="43" x="18.393660079989 " y="50.423606849846">
<activity type="rest">
</activity>
</facility>
<facility id="44" x="18.55182957556 " y="50.308750947786">
<activity type="rest">
</activity>
</facility>
<facility id="45" x="18.550082684433 " y="50.313861757353">
<activity type="rest">
</activity>
</facility>
<facility id="46" x="18.884469883065 " y="50.251266384479">
<activity type="rest">
</activity>
</facility>
<facility id="47" x="18.879514187213 " y="50.252376901963">
<activity type="rest">
</activity>
</facility>
<facility id="48" x="19.295374305681 " y="50.148469745333">
<activity type="rest">
</activity>
</facility>
<facility id="49" x="19.302570030205 " y="50.148361257138">
<activity type="rest">
</activity>
</facility>
<facility id="270" x="17.50257527706 " y="51.241615498471">
<activity type="rest">
</activity>
</facility>
<facility id="271" x="17.730342633276 " y="51.294152607663">
<activity type="rest">
</activity>
</facility>
<facility id="150" x="20.320796508294 " y="53.481892243762">
<activity type="rest">
</activity>
</facility>
<facility id="151" x="20.337082540286 " y="53.413289963368">
<activity type="rest">
</activity>
</facility>
<facility id="272" x="17.74409841962 " y="51.297000427088">
<activity type="rest">
</activity>
</facility>
<facility id="273" x="15.627917375077 " y="51.338609312189">
<activity type="rest">
</activity>
</facility>
<facility id="152" x="17.410144121994 " y="50.766326114415">
<activity type="rest">
</activity>
</facility>
<facility id="274" x="15.792303128934 " y="51.274287459504">
<activity type="rest">
</activity>
</facility>
<facility id="153" x="17.435007028094 " y="50.754506999806">
<activity type="rest">
</activity>
</facility>
<facility id="275" x="15.974482191278 " y="51.221469240105">
<activity type="rest">
</activity>
</facility>
<facility id="154" x="17.658687595511 " y="50.674904803366">
<activity type="rest">
</activity>
</facility>
<facility id="276" x="15.981044398939 " y="51.21883494566">
<activity type="rest">
</activity>
</facility>
<facility id="155" x="17.652129671991 " y="50.677767026409">
<activity type="rest">
</activity>
</facility>
<facility id="156" x="17.858498287721 " y="50.57028498258">
<activity type="rest">
</activity>
</facility>
<facility id="277" x="16.231806572814 " y="51.153138140012">
<activity type="rest">
</activity>
</facility>
<facility id="157" x="17.862646641983 " y="50.568161531387">
<activity type="rest">
</activity>
</facility>
<facility id="278" x="14.655419498037 " y="52.324460249699">
<activity type="rest">
</activity>
</facility>
<facility id="158" x="18.16328704825 " y="50.46219974755">
<activity type="rest">
</activity>
</facility>
<facility id="279" x="14.650693935321 " y="52.324692022051">
<activity type="rest">
</activity>
</facility>
<facility id="159" x="18.159140949166 " y="50.462085390949">
<activity type="rest">
</activity>
</facility>
<facility id="50" x="19.218243823632 " y="50.292879915267">
<activity type="rest">
</activity>
</facility>
<facility id="51" x="19.10823777237 " y="50.147526390356">
<activity type="rest">
</activity>
</facility>
<facility id="52" x="19.194943521943 " y="50.268136442762">
<activity type="rest">
</activity>
</facility>
<facility id="53" x="19.104788528075 " y="50.14518145967">
<activity type="rest">
</activity>
</facility>
<facility id="54" x="18.920145877986 " y="49.812358708867">
<activity type="rest">
</activity>
</facility>
<facility id="55" x="18.887301077028 " y="49.804933237252">
<activity type="rest">
</activity>
</facility>
<facility id="56" x="18.832882998992 " y="49.795096724819">
<activity type="rest">
</activity>
</facility>
<facility id="57" x="18.704237306914 " y="49.76541024201">
<activity type="rest">
</activity>
</facility>
<facility id="58" x="18.698114359398 " y="49.764989579653">
<activity type="rest">
</activity>
</facility>
<facility id="59" x="18.654395201846 " y="49.766001065073">
<activity type="rest">
</activity>
</facility>
<facility id="280" x="15.160043899866 " y="52.325913504373">
<activity type="rest">
</activity>
</facility>
<facility id="160" x="16.189892542484 " y="52.367729912194">
<activity type="rest">
</activity>
</facility>
<facility id="281" x="15.165594933527 " y="52.325939023376">
<activity type="rest">
</activity>
</facility>
<facility id="282" x="15.785319725931 " y="52.314045278481">
<activity type="rest">
</activity>
</facility>
<facility id="161" x="16.189892542484 " y="52.367729912194">
<activity type="rest">
</activity>
</facility>
<facility id="283" x="15.779401897643 " y="52.311972648856">
<activity type="rest">
</activity>
</facility>
<facility id="162" x="16.475620920676 " y="52.387189217689">
<activity type="rest">
</activity>
</facility>
<facility id="284" x="15.118086118886 " y="52.787609648026">
<activity type="rest">
</activity>
</facility>
<facility id="163" x="16.475620920676 " y="52.387189217689">
<activity type="rest">
</activity>
</facility>
<facility id="164" x="16.732326779233 " y="52.350704166011">
<activity type="rest">
</activity>
</facility>
<facility id="285" x="15.119748622763 " y="52.785441598698">
<activity type="rest">
</activity>
</facility>
<facility id="165" x="16.732326779233 " y="52.350704166011">
<activity type="rest">
</activity>
</facility>
<facility id="286" x="15.539976934165 " y="52.542421985319">
<activity type="rest">
</activity>
</facility>
<facility id="287" x="15.542063015479 " y="52.542063026144">
<activity type="rest">
</activity>
</facility>
<facility id="166" x="17.092475304615 " y="52.328511787127">
<activity type="rest">
</activity>
</facility>
<facility id="288" x="15.575198012042 " y="52.136104991444">
<activity type="rest">
</activity>
</facility>
<facility id="167" x="17.092475304615 " y="52.328511787127">
<activity type="rest">
</activity>
</facility>
<facility id="289" x="15.577086068745 " y="52.134867030005">
<activity type="rest">
</activity>
</facility>
<facility id="168" x="17.41999223741 " y="52.318057654567">
<activity type="rest">
</activity>
</facility>
<facility id="169" x="17.41999223741 " y="52.318057654567">
<activity type="rest">
</activity>
</facility>
<facility id="60" x="18.649604046836 " y="49.765860715243">
<activity type="rest">
</activity>
</facility>
<facility id="61" x="20.818145272368 " y="51.031895617178">
<activity type="rest">
</activity>
</facility>
<facility id="62" x="20.742914209125 " y="50.974964968365">
<activity type="rest">
</activity>
</facility>
<facility id="63" x="20.483188330533 " y="50.841367900763">
<activity type="rest">
</activity>
</facility>
<facility id="64" x="20.484104167452 " y="50.84245116466">
<activity type="rest">
</activity>
</facility>
<facility id="65" x="20.739707114293 " y="50.972828896651">
<activity type="rest">
</activity>
</facility>
<facility id="66" x="20.208556721954 " y="50.560834910914">
<activity type="rest">
</activity>
</facility>
<facility id="67" x="20.251896945113 " y="50.596154661447">
<activity type="rest">
</activity>
</facility>
<facility id="68" x="19.75968721613 " y="50.079027981956">
<activity type="rest">
</activity>
</facility>
<facility id="69" x="19.772984283577 " y="50.081348099093">
<activity type="rest">
</activity>
</facility>
<facility id="290" x="15.587081523041 " y="51.906018381549">
<activity type="rest">
</activity>
</facility>
<facility id="291" x="14.827649634228 " y="51.648760205109">
<activity type="rest">
</activity>
</facility>
<facility id="170" x="17.65282578197 " y="52.294350620236">
<activity type="rest">
</activity>
</facility>
<facility id="171" x="17.65282578197 " y="52.294350620236">
<activity type="rest">
</activity>
</facility>
<facility id="292" x="14.82913098354 " y="51.647937786052">
<activity type="rest">
</activity>
</facility>
<facility id="172" x="17.788376234663 " y="52.261362541897">
<activity type="rest">
</activity>
</facility>
<facility id="173" x="17.95127688308 " y="52.22174339633">
<activity type="rest">
</activity>
</facility>
<facility id="174" x="18.122914665557 " y="52.179657196749">
<activity type="rest">
</activity>
</facility>
<facility id="175" x="18.122914665557 " y="52.179657196749">
<activity type="rest">
</activity>
</facility>
<facility id="176" x="18.277667775888 " y="52.152351385655">
<activity type="rest">
</activity>
</facility>
<facility id="177" x="18.277667775888 " y="52.152351385655">
<activity type="rest">
</activity>
</facility>
<facility id="178" x="18.45689085477 " y="52.152453696968">
<activity type="rest">
</activity>
</facility>
<facility id="179" x="18.45689085477 " y="52.152453696968">
<activity type="rest">
</activity>
</facility>
<facility id="70" x="20.338134536301 " y="49.98853158021">
<activity type="rest">
</activity>
</facility>
<facility id="71" x="20.342453517324 " y="49.987792135212">
<activity type="rest">
</activity>
</facility>
<facility id="72" x="20.887547368159 " y="50.043302049794">
<activity type="rest">
</activity>
</facility>
<facility id="73" x="20.891846802922 " y="50.040650810233">
<activity type="rest">
</activity>
</facility>
<facility id="74" x="20.139430608203 " y="50.016770033222">
<activity type="rest">
</activity>
</facility>
<facility id="75" x="20.141001564676 " y="50.017583043049">
<activity type="rest">
</activity>
</facility>
<facility id="76" x="20.62135628811 " y="49.997793959036">
<activity type="rest">
</activity>
</facility>
<facility id="77" x="20.61156009521 " y="49.998279202516">
<activity type="rest">
</activity>
</facility>
<facility id="78" x="22.250997875916 " y="51.388969956386">
<activity type="rest">
</activity>
</facility>
<facility id="79" x="22.244926222131 " y="51.389941462126">
<activity type="rest">
</activity>
</facility>
<facility id="180" x="18.634401727066 " y="52.134838857823">
<activity type="rest">
</activity>
</facility>
<facility id="181" x="18.634401727066 " y="52.134838857823">
<activity type="rest">
</activity>
</facility>
<facility id="182" x="18.77190565936 " y="52.097326552957">
<activity type="rest">
</activity>
</facility>
<facility id="183" x="18.77190565936 " y="52.097326552957">
<activity type="rest">
</activity>
</facility>
<facility id="184" x="17.472050527837 " y="52.50751350274">
<activity type="rest">
</activity>
</facility>
<facility id="185" x="17.472050527837 " y="52.50751350274">
<activity type="rest">
</activity>
</facility>
<facility id="186" x="17.335255847321 " y="52.434633984292">
<activity type="rest">
</activity>
</facility>
<facility id="187" x="17.335255847321 " y="52.434633984292">
<activity type="rest">
</activity>
</facility>
<facility id="188" x="17.201857456082 " y="52.36474098757">
<activity type="rest">
</activity>
</facility>
<facility id="189" x="17.201857456082 " y="52.36474098757">
<activity type="rest">
</activity>
</facility>
<facility id="80" x="19.487437720775 " y="52.18776596311">
<activity type="rest">
</activity>
</facility>
<facility id="81" x="19.487258768523 " y="52.181059563267">
<activity type="rest">
</activity>
</facility>
<facility id="82" x="19.543161416942 " y="52.007237121394">
<activity type="rest">
</activity>
</facility>
<facility id="83" x="19.544193628609 " y="52.005817461529">
<activity type="rest">
</activity>
</facility>
<facility id="84" x="19.65888918623 " y="51.841051765249">
<activity type="rest">
</activity>
</facility>
<facility id="85" x="19.65888918623 " y="51.841051765249">
<activity type="rest">
</activity>
</facility>
<facility id="86" x="19.603729260149 " y="51.702439838525">
<activity type="rest">
</activity>
</facility>
<facility id="87" x="19.603729260149 " y="51.702439838525">
<activity type="rest">
</activity>
</facility>
<facility id="88" x="18.880484433883 " y="52.034215113522">
<activity type="rest">
</activity>
</facility>
<facility id="89" x="18.875868938186 " y="52.035423399804">
<activity type="rest">
</activity>
</facility>
<facility id="190" x="16.753847536197 " y="51.691137786568">
<activity type="rest">
</activity>
</facility>
<facility id="191" x="16.753847536197 " y="51.691137786568">
<activity type="rest">
</activity>
</facility>
<facility id="192" x="16.753847536197 " y="51.691137786568">
<activity type="rest">
</activity>
</facility>
<facility id="193" x="16.753847536197 " y="51.691137786568">
<activity type="rest">
</activity>
</facility>
<facility id="194" x="17.623261950344 " y="52.597412699092">
<activity type="rest">
</activity>
</facility>
<facility id="195" x="17.627943163783 " y="52.605091641173">
<activity type="rest">
</activity>
</facility>
<facility id="196" x="16.765511713765 " y="52.371731707511">
<activity type="rest">
</activity>
</facility>
<facility id="197" x="16.765122713436 " y="52.373643754648">
<activity type="rest">
</activity>
</facility>
<facility id="198" x="18.216787401232 " y="51.273945819267">
<activity type="rest">
</activity>
</facility>
<facility id="199" x="18.262169702515 " y="51.3038255147">
<activity type="rest">
</activity>
</facility>
<facility id="90" x="19.180300961507 " y="51.944123405598">
<activity type="rest">
</activity>
</facility>
<facility id="91" x="19.175183362596 " y="51.945366513033">
<activity type="rest">
</activity>
</facility>
<facility id="92" x="19.410325467064 " y="51.918877135241">
<activity type="rest">
</activity>
</facility>
<facility id="93" x="19.406284103488 " y="51.919283284549">
<activity type="rest">
</activity>
</facility>
<facility id="94" x="19.562183055401 " y="51.892118932848">
<activity type="rest">
</activity>
</facility>
<facility id="95" x="19.553985838814 " y="51.893266216953">
<activity type="rest">
</activity>
</facility>
<facility id="96" x="19.711017049358 " y="51.899793794558">
<activity type="rest">
</activity>
</facility>
<facility id="97" x="19.702729681633 " y="51.898125541788">
<activity type="rest">
</activity>
</facility>
<facility id="98" x="20.00657772498 " y="52.029871841911">
<activity type="rest">
</activity>
</facility>
<facility id="99" x="20.00054862341 " y="52.026222638101">
<activity type="rest">
</activity>
</facility>
<facility id="200" x="21.224849106229 " y="50.098730244987">
<activity type="rest">
</activity>
</facility>
<facility id="201" x="21.21983839145 " y="50.096578190979">
<activity type="rest">
</activity>
</facility>
<facility id="202" x="21.515170247395 " y="50.09614521418">
<activity type="rest">
</activity>
</facility>
<facility id="203" x="21.522324102483 " y="50.097591591602">
<activity type="rest">
</activity>
</facility>
<facility id="204" x="21.841841759126 " y="50.110640865628">
<activity type="rest">
</activity>
</facility>
<facility id="205" x="21.848461272841 " y="50.109713661446">
<activity type="rest">
</activity>
</facility>
<facility id="206" x="19.007340370397 " y="49.856380024446">
<activity type="rest">
</activity>
</facility>
<facility id="207" x="19.007247443744 " y="49.856603785123">
<activity type="rest">
</activity>
</facility>
<facility id="208" x="19.00899835664 " y="49.869182772589">
<activity type="rest">
</activity>
</facility>
<facility id="209" x="19.008941706051 " y="49.869200411009">
<activity type="rest">
</activity>
</facility>
<facility id="210" x="22.606109575507 " y="49.994754390396">
<activity type="rest">
</activity>
</facility>
<facility id="211" x="22.605074502593 " y="49.99785167552">
<activity type="rest">
</activity>
</facility>
<facility id="212" x="22.740056917325 " y="49.919741680397">
<activity type="rest">
</activity>
</facility>
<facility id="213" x="22.740818370188 " y="49.916716614932">
<activity type="rest">
</activity>
</facility>
<facility id="214" x="23.024991550086 " y="49.948611374018">
<activity type="rest">
</activity>
</facility>
<facility id="215" x="23.020832798083 " y="49.946939059489">
<activity type="rest">
</activity>
</facility>
<facility id="216" x="14.582491086436 " y="53.305673665172">
<activity type="rest">
</activity>
</facility>
<facility id="217" x="14.585158340378 " y="53.30621311716">
<activity type="rest">
</activity>
</facility>
<facility id="218" x="14.711303452192 " y="53.151781628478">
<activity type="rest">
</activity>
</facility>
<facility id="219" x="14.71349105108 " y="53.15240334581">
<activity type="rest">
</activity>
</facility>
<facility id="220" x="14.866699531877 " y="53.051775232918">
<activity type="rest">
</activity>
</facility>
<facility id="221" x="14.864308738324 " y="53.05157295938">
<activity type="rest">
</activity>
</facility>
<facility id="100" x="20.240263116892 " y="52.075408877217">
<activity type="rest">
</activity>
</facility>
<facility id="222" x="14.812531476513 " y="53.581459118407">
<activity type="rest">
</activity>
</facility>
<facility id="101" x="20.233682250438 " y="52.075027883425">
<activity type="rest">
</activity>
</facility>