<?xml version="1.0"?>
<!DOCTYPE facilities SYSTEM "http://www.matsim.org/files/dtd/facilities_v1.dtd">
<facilities name="mopy" >
<facility id="1" x="750767.268307 " y="592175.832676">
<activity type="rest">
</activity>
</facility>
<facility id="2" x="753603.352428 " y="593336.073201">
<activity type="rest">
</activity>
</facility>
<facility id="3" x="763012.194307 " y="596086.031574">
<activity type="rest">
</activity>
</facility>
<facility id="4" x="750644.519985 " y="688229.622242">
<activity type="rest">
</activity>
</facility>
<facility id="5" x="724859.053482 " y="580193.815347">
<activity type="rest">
</activity>
</facility>
<facility id="6" x="727651.437349 " y="582349.286400">
<activity type="rest">
</activity>
</facility>
<facility id="7" x="476222.91 " y="640470.10">
<activity type="rest">
</activity>
</facility>
<facility id="8" x="476178.11 " y="642285.11">
<activity type="rest">
</activity>
</facility>
<facility id="9" x="480584.04 " y="608667.41">
<activity type="rest">
</activity>
</facility>
<facility id="10" x="480693.89 " y="608948.71">
<activity type="rest">
</activity>
</facility>
<facility id="11" x="481571.81 " y="599328.81">
<activity type="rest">
</activity>
</facility>
<facility id="12" x="481688.22 " y="599250.51">
<activity type="rest">
</activity>
</facility>
<facility id="13" x="482811.24 " y="586367.84">
<activity type="rest">
</activity>
</facility>
<facility id="14" x="482734.80 " y="586496.00">
<activity type="rest">
</activity>
</facility>
<facility id="15" x="482192.95 " y="571996.07">
<activity type="rest">
</activity>
</facility>
<facility id="16" x="482244.53 " y="571736.39">
<activity type="rest">
</activity>
</facility>
<facility id="17" x="481273.24 " y="559679.47">
<activity type="rest">
</activity>
</facility>
<facility id="18" x="481445.67 " y="559345.18">
<activity type="rest">
</activity>
</facility>
<facility id="19" x="490105.08 " y="544112.32">
<activity type="rest">
</activity>
</facility>
<facility id="20" x="490285.53 " y="543830.24">
<activity type="rest">
</activity>
</facility>
<facility id="21" x="495163.88 " y="532254.12">
<activity type="rest">
</activity>
</facility>
<facility id="22" x="495469.28 " y="532226.02">
<activity type="rest">
</activity>
</facility>
<facility id="23" x="500744.21 " y="522479.06">
<activity type="rest">
</activity>
</facility>
<facility id="24" x="501015.26 " y="522367.90">
<activity type="rest">
</activity>
</facility>
<facility id="25" x="512842.95 " y="511058.96">
<activity type="rest">
</activity>
</facility>
<facility id="26" x="513098.83 " y="511033.69">
<activity type="rest">
</activity>
</facility>
<facility id="27" x="524213.83 " y="497161.22">
<activity type="rest">
</activity>
</facility>
<facility id="28" x="524302.36 " y="497165.36">
<activity type="rest">
</activity>
</facility>
<facility id="29" x="475924.84 " y="703209.59">
<activity type="rest">
</activity>
</facility>
<facility id="30" x="476088.88 " y="702888.38">
<activity type="rest">
</activity>
</facility>
<facility id="31" x="475681.95 " y="669180.66">
<activity type="rest">
</activity>
</facility>
<facility id="32" x="475803.13 " y="669510.33">
<activity type="rest">
</activity>
</facility>
<facility id="33" x="487112.51 " y="715386.40">
<activity type="rest">
</activity>
</facility>
<facility id="34" x="501317.09 " y="282082.47">
<activity type="rest">
</activity>
</facility>
<facility id="35" x="501023.31 " y="281888.99">
<activity type="rest">
</activity>
</facility>
<facility id="36" x="481912.90 " y="278333.17">
<activity type="rest">
</activity>
</facility>
<facility id="37" x="481423.95 " y="278132.35">
<activity type="rest">
</activity>
</facility>
<facility id="38" x="478705.34 " y="258955.78">
<activity type="rest">
</activity>
</facility>
<facility id="39" x="478799.00 " y="258717.13">
<activity type="rest">
</activity>
</facility>
<facility id="40" x="475897.84 " y="245456.45">
<activity type="rest">
</activity>
</facility>
<facility id="41" x="475957.63 " y="245232.61">
<activity type="rest">
</activity>
</facility>
<facility id="42" x="465129.01 " y="232395.80">
<activity type="rest">
</activity>
</facility>
<facility id="43" x="456593.28 " y="284450.07">
<activity type="rest">
</activity>
</facility>
<facility id="44" x="456941.48 " y="284230.20">
<activity type="rest">
</activity>
</facility>
<facility id="45" x="468096.74 " y="271383.42">
<activity type="rest">
</activity>
</facility>
<facility id="46" x="467975.82 " y="271952.27">
<activity type="rest">
</activity>
</facility>
<facility id="47" x="491766.00 " y="264904.00">
<activity type="rest">
</activity>
</facility>
<facility id="48" x="491413.00 " y="265028.00">
<activity type="rest">
</activity>
</facility>
<facility id="49" x="521097.00 " y="253513.00">
<activity type="rest">
</activity>
</facility>
<facility id="50" x="521611.00 " y="253503.00">
<activity type="rest">
</activity>
</facility>
<facility id="51" x="515541.00 " y="269546.00">
<activity type="rest">
</activity>
</facility>
<facility id="52" x="507731.00 " y="253372.00">
<activity type="rest">
</activity>
</facility>
<facility id="53" x="513889.00 " y="266791.00">
<activity type="rest">
</activity>
</facility>
<facility id="54" x="507485.00 " y="253111.00">
<activity type="rest">
</activity>
</facility>
<facility id="55" x="494256.57 " y="216115.29">
<activity type="rest">
</activity>
</facility>
<facility id="56" x="491893.00 " y="215293.00">
<activity type="rest">
</activity>
</facility>
<facility id="57" x="487976.00 " y="214207.00">
<activity type="rest">
</activity>
</facility>
<facility id="58" x="478707.00 " y="210936.00">
<activity type="rest">
</activity>
</facility>
<facility id="59" x="478266.00 " y="210891.00">
<activity type="rest">
</activity>
</facility>
<facility id="60" x="475119.00 " y="211017.00">
<activity type="rest">
</activity>
</facility>
<facility id="61" x="474774.00 " y="211003.00">
<activity type="rest">
</activity>
</facility>
<facility id="62" x="627448.32 " y="353247.56">
<activity type="rest">
</activity>
</facility>
<facility id="63" x="622324.78 " y="346791.71">
<activity type="rest">
</activity>
</facility>
<facility id="64" x="604395.52 " y="331542.15">
<activity type="rest">
</activity>
</facility>
<facility id="65" x="604457.56 " y="331663.86">
<activity type="rest">
</activity>
</facility>
<facility id="66" x="622105.31 " y="346548.95">
<activity type="rest">
</activity>
</facility>
<facility id="67" x="585575.07 " y="300006.02">
<activity type="rest">
</activity>
</facility>
<facility id="68" x="588577.52 " y="303982.96">
<activity type="rest">
</activity>
</facility>
<facility id="69" x="554338.67 " y="246028.85">
<activity type="rest">
</activity>
</facility>
<facility id="70" x="555287.10 " y="246296.49">
<activity type="rest">
</activity>
</facility>
<facility id="71" x="595892.71 " y="236551.45">
<activity type="rest">
</activity>
</facility>
<facility id="72" x="596203.68 " y="236474.81">
<activity type="rest">
</activity>
</facility>
<facility id="73" x="635108.64 " y="243487.74">
<activity type="rest">
</activity>
</facility>
<facility id="74" x="635423.83 " y="243200.86">
<activity type="rest">
</activity>
</facility>
<facility id="75" x="581605.82 " y="239454.25">
<activity type="rest">
</activity>
</facility>
<facility id="76" x="581716.95 " y="239546.33">
<activity type="rest">
</activity>
</facility>
<facility id="77" x="616165.63 " y="237982.45">
<activity type="rest">
</activity>
</facility>
<facility id="78" x="615462.63 " y="238021.21">
<activity type="rest">
</activity>
</facility>
<facility id="79" x="726113.90 " y="396387.68">
<activity type="rest">
</activity>
</facility>
<facility id="80" x="725686.92 " y="396476.93">
<activity type="rest">
</activity>
</facility>
<facility id="81" x="533312.58 " y="480299.09">
<activity type="rest">
</activity>
</facility>
<facility id="82" x="533305.36 " y="479553.31">
<activity type="rest">
</activity>
</facility>
<facility id="83" x="537270.99 " y="460253.13">
<activity type="rest">
</activity>
</facility>
<facility id="84" x="537343.00 " y="460095.81">
<activity type="rest">
</activity>
</facility>
<facility id="85" x="545379.27 " y="441841.25">
<activity type="rest">
</activity>
</facility>
<facility id="86" x="545379.27 " y="441841.25">
<activity type="rest">
</activity>
</facility>
<facility id="87" x="541707.88 " y="426396.95">
<activity type="rest">
</activity>
</facility>
<facility id="88" x="541707.88 " y="426396.95">
<activity type="rest">
</activity>
</facility>
<facility id="89" x="491803.91 " y="463120.32">
<activity type="rest">
</activity>
</facility>
<facility id="90" x="491487.62 " y="463255.20">
<activity type="rest">
</activity>
</facility>
<facility id="91" x="512389.44 " y="453111.70">
<activity type="rest">
</activity>
</facility>
<facility id="92" x="512037.45 " y="453249.06">
<activity type="rest">
</activity>
</facility>
<facility id="93" x="528211.43 " y="450368.78">
<activity type="rest">
</activity>
</facility>
<facility id="94" x="527933.32 " y="450412.38">
<activity type="rest">
</activity>
</facility>
<facility id="95" x="538675.12 " y="447463.38">
<activity type="rest">
</activity>
</facility>
<facility id="96" x="538110.23 " y="447586.62">
<activity type="rest">
</activity>
</facility>
<facility id="97" x="548905.64 " y="448406.23">
<activity type="rest">
</activity>
</facility>
<facility id="98" x="548337.41 " y="448215.21">
<activity type="rest">
</activity>
</facility>
<facility id="99" x="569034.52 " y="463108.72">
<activity type="rest">
</activity>
</facility>
<facility id="100" x="568626.62 " y="462697.27">
<activity type="rest">
</activity>
</facility>
<facility id="101" x="584974.47 " y="468419.47">
<activity type="rest">
</activity>
</facility>
<facility id="102" x="584524.33 " y="468369.43">
<activity type="rest">
</activity>
</facility>
<facility id="103" x="466716.71 " y="387773.70">
<activity type="rest">
</activity>
</facility>
<facility id="104" x="466946.06 " y="388068.80">
<activity type="rest">
</activity>
</facility>
<facility id="105" x="478885.47 " y="406620.87">
<activity type="rest">
</activity>
</facility>
<facility id="106" x="478883.98 " y="407074.50">
<activity type="rest">
</activity>
</facility>
<facility id="107" x="495388.04 " y="412127.91">
<activity type="rest">
</activity>
</facility>
<facility id="108" x="495852.65 " y="412099.34">
<activity type="rest">
</activity>
</facility>
<facility id="109" x="505951.39 " y="409632.22">
<activity type="rest">
</activity>
</facility>
<facility id="110" x="505951.39 " y="409632.22">
<activity type="rest">
</activity>
</facility>
<facility id="111" x="530431.08 " y="418668.97">
<activity type="rest">
</activity>
</facility>
<facility id="112" x="530101.87 " y="418614.96">
<activity type="rest">
</activity>
</facility>
<facility id="113" x="556778.38 " y="402287.15">
<activity type="rest">
</activity>
</facility>
<facility id="114" x="557393.45 " y="402944.62">
<activity type="rest">
</activity>
</facility>
<facility id="115" x="590779.20 " y="440059.69">
<activity type="rest">
</activity>
</facility>
<facility id="116" x="547275.52 " y="397486.99">
<activity type="rest">
</activity>
</facility>
<facility id="117" x="547275.52 " y="397486.99">
<activity type="rest">
</activity>
</facility>
<facility id="118" x="554227.08 " y="399551.05">
<activity type="rest">
</activity>
</facility>
<facility id="119" x="560288.02 " y="404391.68">
<activity type="rest">
</activity>
</facility>
<facility id="120" x="560958.33 " y="404676.05">
<activity type="rest">
</activity>
</facility>
<facility id="121" x="561534.89 " y="404766.68">
<activity type="rest">
</activity>
</facility>
<facility id="122" x="563176.30 " y="405919.80">
<activity type="rest">
</activity>
</facility>
<facility id="123" x="578191.14 " y="420158.87">
<activity type="rest">
</activity>
</facility>
<facility id="124" x="582302.76 " y="424336.52">
<activity type="rest">
</activity>
</facility>
<facility id="125" x="584982.32 " y="430470.05">
<activity type="rest">
</activity>
</facility>
<facility id="126" x="584982.32 " y="430470.05">
<activity type="rest">
</activity>
</facility>
<facility id="127" x="595095.83 " y="444858.87">
<activity type="rest">
</activity>
</facility>
<facility id="128" x="554206.77 " y="399599.49">
<activity type="rest">
</activity>
</facility>
<facility id="129" x="554206.77 " y="399599.49">
<activity type="rest">
</activity>
</facility>
<facility id="130" x="557222.39 " y="402786.99">
<activity type="rest">
</activity>
</facility>
<facility id="131" x="558297.39 " y="403477.62">
<activity type="rest">
</activity>
</facility>
<facility id="132" x="560759.89 " y="404651.05">
<activity type="rest">
</activity>
</facility>
<facility id="133" x="562849.59 " y="405719.27">
<activity type="rest">
</activity>
</facility>
<facility id="134" x="564903.64 " y="406847.93">
<activity type="rest">
</activity>
</facility>
<facility id="135" x="572113.02 " y="414225.27">
<activity type="rest">
</activity>
</facility>
<facility id="136" x="579697.22 " y="421743.63">
<activity type="rest">
</activity>
</facility>
<facility id="137" x="581558.57 " y="423449.85">
<activity type="rest">
</activity>
</facility>
<facility id="138" x="585050.29 " y="430727.08">
<activity type="rest">
</activity>
</facility>
<facility id="139" x="600672.94 " y="452253.64">
<activity type="rest">
</activity>
</facility>
<facility id="140" x="527103.39 " y="697076.84">
<activity type="rest">
</activity>
</facility>
<facility id="141" x="529586.76 " y="696956.53">
<activity type="rest">
</activity>
</facility>
<facility id="142" x="532690.01 " y="693919.42">
<activity type="rest">
</activity>
</facility>
<facility id="143" x="539984.86 " y="690539.92">
<activity type="rest">
</activity>
</facility>
<facility id="144" x="548219.60 " y="669670.06">
<activity type="rest">
</activity>
</facility>
<facility id="145" x="548211.78 " y="669143.03">
<activity type="rest">
</activity>
</facility>
<facility id="146" x="551974.71 " y="660270.81">
<activity type="rest">
</activity>
</facility>
<facility id="147" x="552050.20 " y="660034.51">
<activity type="rest">
</activity>
</facility>
<facility id="148" x="568827.66 " y="642351.60">
<activity type="rest">
</activity>
</facility>
<facility id="149" x="569140.35 " y="641911.10">
<activity type="rest">
</activity>
</facility>
<facility id="150" x="586294.00 " y="628174.10">
<activity type="rest">
</activity>
</facility>
<facility id="151" x="587620.51 " y="624912.48">
<activity type="rest">
</activity>
</facility>
<facility id="152" x="588843.90 " y="617303.50">
<activity type="rest">
</activity>
</facility>
<facility id="153" x="387917.54 " y="323356.80">
<activity type="rest">
</activity>
</facility>
<facility id="154" x="389642.45 " y="322005.63">
<activity type="rest">
</activity>
</facility>
<facility id="155" x="405254.60 " y="312847.27">
<activity type="rest">
</activity>
</facility>
<facility id="156" x="404797.18 " y="313173.84">
<activity type="rest">
</activity>
</facility>
<facility id="157" x="419188.98 " y="300981.26">
<activity type="rest">
</activity>
</facility>
<facility id="158" x="419479.03 " y="300740.71">
<activity type="rest">
</activity>
</facility>
<facility id="159" x="440630.30 " y="288678.89">
<activity type="rest">
</activity>
</facility>
<facility id="160" x="440335.97 " y="288669.50">
<activity type="rest">
</activity>
</facility>
<facility id="161" x="308746.20 " y="503913.78">
<activity type="rest">
</activity>
</facility>
<facility id="162" x="308746.20 " y="503913.78">
<activity type="rest">
</activity>
</facility>
<facility id="163" x="328264.82 " y="505359.73">
<activity type="rest">
</activity>
</facility>
<facility id="164" x="328264.82 " y="505359.73">
<activity type="rest">
</activity>
</facility>
<facility id="165" x="345599.03 " y="500724.75">
<activity type="rest">
</activity>
</facility>
<facility id="166" x="345599.03 " y="500724.75">
<activity type="rest">
</activity>
</facility>
<facility id="167" x="370053.20 " y="497549.74">
<activity type="rest">
</activity>
</facility>
<facility id="168" x="370053.20 " y="497549.74">
<activity type="rest">
</activity>
</facility>
<facility id="169" x="392337.77 " y="495849.79">
<activity type="rest">
</activity>
</facility>
<facility id="170" x="392337.77 " y="495849.79">
<activity type="rest">
</activity>
</facility>
<facility id="171" x="408153.27 " y="492893.07">
<activity type="rest">
</activity>
</facility>
<facility id="172" x="408153.27 " y="492893.07">
<activity type="rest">
</activity>
</facility>
<facility id="173" x="417333.01 " y="489061.89">
<activity type="rest">
</activity>
</facility>
<facility id="174" x="428383.35 " y="484483.27">
<activity type="rest">
</activity>
</facility>
<facility id="175" x="440047.53 " y="479648.00">
<activity type="rest">
</activity>
</facility>
<facility id="176" x="440047.53 " y="479648.00">
<activity type="rest">
</activity>
</facility>
<facility id="177" x="450595.17 " y="476495.22">
<activity type="rest">
</activity>
</facility>
<facility id="178" x="450595.17 " y="476495.22">
<activity type="rest">
</activity>
</facility>
<facility id="179" x="462853.34 " y="476399.70">
<activity type="rest">
</activity>
</facility>
<facility id="180" x="462853.34 " y="476399.70">
<activity type="rest">
</activity>
</facility>
<facility id="181" x="474984.51 " y="474365.05">
<activity type="rest">
</activity>
</facility>
<facility id="182" x="474984.51 " y="474365.05">
<activity type="rest">
</activity>
</facility>
<facility id="183" x="484379.88 " y="470155.52">
<activity type="rest">
</activity>
</facility>
<facility id="184" x="484379.88 " y="470155.52">
<activity type="rest">
</activity>
</facility>
<facility id="185" x="396330.08 " y="516838.70">
<activity type="rest">
</activity>
</facility>
<facility id="186" x="396330.08 " y="516838.70">
<activity type="rest">
</activity>
</facility>
<facility id="187" x="386862.57 " y="508940.71">
<activity type="rest">
</activity>
</facility>
<facility id="188" x="386862.57 " y="508940.71">
<activity type="rest">
</activity>
</facility>
<facility id="189" x="377604.15 " y="501387.00">
<activity type="rest">
</activity>
</facility>
<facility id="190" x="377604.15 " y="501387.00">
<activity type="rest">
</activity>
</facility>
<facility id="191" x="344797.22 " y="427355.58">
<activity type="rest">
</activity>
</facility>
<facility id="192" x="344797.22 " y="427355.58">
<activity type="rest">
</activity>
</facility>
<facility id="193" x="344797.22 " y="427355.58">
<activity type="rest">
</activity>
</facility>
<facility id="194" x="344797.22 " y="427355.58">
<activity type="rest">
</activity>
</facility>
<facility id="195" x="406779.82 " y="526628.36">
<activity type="rest">
</activity>
</facility>
<facility id="196" x="407113.02 " y="527476.16">
<activity type="rest">
</activity>
</facility>
<facility id="197" x="347930.46 " y="502992.17">
<activity type="rest">
</activity>
</facility>
<facility id="198" x="347910.56 " y="503205.56">
<activity type="rest">
</activity>
</facility>
<facility id="199" x="445383.31 " y="378875.88">
<activity type="rest">
</activity>
</facility>
<facility id="200" x="448581.35 " y="382164.95">
<activity type="rest">
</activity>
</facility>
<facility id="201" x="659066.86 " y="250312.31">
<activity type="rest">
</activity>
</facility>
<facility id="202" x="658715.76 " y="250062.47">
<activity type="rest">
</activity>
</facility>
<facility id="203" x="679831.00 " y="250684.00">
<activity type="rest">
</activity>
</facility>
<facility id="204" x="680337.00 " y="250862.00">
<activity type="rest">
</activity>
</facility>
<facility id="205" x="703123.00 " y="253133.00">
<activity type="rest">
</activity>
</facility>
<facility id="206" x="703600.00 " y="253048.00">
<activity type="rest">
</activity>
</facility>
<facility id="207" x="500527.47 " y="221005.14">
<activity type="rest">
</activity>
</facility>
<facility id="208" x="500520.79 " y="221030.01">
<activity type="rest">
</activity>
</facility>
<facility id="209" x="500646.44 " y="222428.16">
<activity type="rest">
</activity>
</facility>
<facility id="210" x="500642.37 " y="222430.12">
<activity type="rest">
</activity>
</facility>
<facility id="211" x="758360.37 " y="242616.94">
<activity type="rest">
</activity>
</facility>
<facility id="212" x="758269.62 " y="242957.51">
<activity type="rest">
</activity>
</facility>
<facility id="213" x="768371.83 " y="234754.09">
<activity type="rest">
</activity>
</facility>
<facility id="214" x="768443.27 " y="234420.71">
<activity type="rest">
</activity>
</facility>
<facility id="215" x="788639.34 " y="239023.02">
<activity type="rest">
</activity>
</facility>
<facility id="216" x="788351.19 " y="238821.17">
<activity type="rest">
</activity>
</facility>
<facility id="217" x="205809.07 " y="613603.91">
<activity type="rest">
</activity>
</facility>
<facility id="218" x="205990.31 " y="613652.86">
<activity type="rest">
</activity>
</facility>
<facility id="219" x="213355.58 " y="595979.45">
<activity type="rest">
</activity>
</facility>
<facility id="220" x="213505.86 " y="596039.77">
<activity type="rest">
</activity>
</facility>
<facility id="221" x="223094.38 " y="584254.15">
<activity type="rest">
</activity>
</facility>
<facility id="222" x="222932.99 " y="584240.92">
<activity type="rest">
</activity>
</facility>
<facility id="223" x="222923.41 " y="643328.32">
<activity type="rest">
</activity>
</facility>
<facility id="224" x="221941.81 " y="639389.99">
<activity type="rest">
</activity>
</facility>
<facility id="225" x="220414.09 " y="630447.04">
<activity type="rest">
</activity>
</facility>
<facility id="226" x="195432.34 " y="617907.62">
<activity type="rest">
</activity>
</facility>
<facility id="227" x="195384.19 " y="617730.35">
<activity type="rest">
</activity>
</facility>
<facility id="228" x="197385.24 " y="618210.83">
<activity type="rest">
</activity>
</facility>
<facility id="229" x="472757.30 " y="600223.00">
<activity type="rest">
</activity>
</facility>
<facility id="230" x="472494.01 " y="600073.74">
<activity type="rest">
</activity>
</facility>
<facility id="231" x="477980.15 " y="615412.95">
<activity type="rest">
</activity>
</facility>
<facility id="232" x="477836.68 " y="615198.63">
<activity type="rest">
</activity>
</facility>
<facility id="233" x="485462.46 " y="685764.99">
<activity type="rest">
</activity>
</facility>
<facility id="234" x="485277.24 " y="685744.58">
<activity type="rest">
</activity>
</facility>
<facility id="235" x="609466.67 " y="510089.83">
<activity type="rest">
</activity>
</facility>
<facility id="236" x="627621.09 " y="447558.61">
<activity type="rest">
</activity>
</facility>
<facility id="237" x="627412.20 " y="446211.61">
<activity type="rest">
</activity>
</facility>
<facility id="238" x="629341.22 " y="442542.62">
<activity type="rest">
</activity>
</facility>
<facility id="239" x="629300.40 " y="442479.92">
<activity type="rest">
</activity>
</facility>
<facility id="240" x="631763.15 " y="432883.30">
<activity type="rest">
</activity>
</facility>
<facility id="241" x="631917.67 " y="432746.14">
<activity type="rest">
</activity>
</facility>
<facility id="242" x="633334.78 " y="427525.37">
<activity type="rest">
</activity>
</facility>
<facility id="243" x="633552.40 " y="426973.05">
<activity type="rest">
</activity>
</facility>
<facility id="244" x="627412.20 " y="446211.61">
<activity type="rest">
</activity>
</facility>
<facility id="245" x="636602.65 " y="418916.34">
<activity type="rest">
</activity>
</facility>
<facility id="246" x="639057.99 " y="414154.89">
<activity type="rest">
</activity>
</facility>
<facility id="247" x="639869.47 " y="413474.38">
<activity type="rest">
</activity>
</facility>
<facility id="248" x="645627.34 " y="408426.65">
<activity type="rest">
</activity>
</facility>
<facility id="249" x="642787.56 " y="410388.81">
<activity type="rest">
</activity>
</facility>
<facility id="250" x="602530.87 " y="455003.07">
<activity type="rest">
</activity>
</facility>
<facility id="251" x="459785.09 " y="606105.58">
<activity type="rest">
</activity>
</facility>
<facility id="252" x="609131.70 " y="460921.02">
<activity type="rest">
</activity>
</facility>
<facility id="253" x="614714.31 " y="463771.91">
<activity type="rest">
</activity>
</facility>
<facility id="254" x="616410.67 " y="465096.15">
<activity type="rest">
</activity>
</facility>
<facility id="255" x="652718.46 " y="510814.12">
<activity type="rest">
</activity>
</facility>
<facility id="256" x="655784.32 " y="512744.26">
<activity type="rest">
</activity>
</facility>
<facility id="257" x="657646.07 " y="514091.39">
<activity type="rest">
</activity>
</facility>
<facility id="258" x="520007.45 " y="663427.91">
<activity type="rest">
</activity>
</facility>
<facility id="259" x="228283.51 " y="376412.14">
<activity type="rest">
</activity>
</facility>
<facility id="260" x="228187.49 " y="376299.32">
<activity type="rest">
</activity>
</facility>
<facility id="261" x="262960.42 " y="388974.36">
<activity type="rest">
</activity>
</facility>
<facility id="262" x="377182.00 " y="332304.00">
<activity type="rest">
</activity>
</facility>
<facility id="263" x="376980.00 " y="332418.00">
<activity type="rest">
</activity>
</facility>
<facility id="264" x="244974.39 " y="381925.24">
<activity type="rest">
</activity>
</facility>
<facility id="265" x="245104.76 " y="382120.06">
<activity type="rest">
</activity>
</facility>
<facility id="266" x="364899.00 " y="345157.00">
<activity type="rest">
</activity>
</facility>
<facility id="267" x="365136.00 " y="344883.00">
<activity type="rest">
</activity>
</facility>
<facility id="268" x="374190.40 " y="374747.40">
<activity type="rest">
</activity>
</facility>
<facility id="269" x="374981.10 " y="374799.40">
<activity type="rest">
</activity>
</facility>
<facility id="270" x="395052.30 " y="375736.60">
<activity type="rest">
</activity>
</facility>
<facility id="271" x="395506.90 " y="376055.20">
<activity type="rest">
</activity>
</facility>
<facility id="272" x="411501.30 " y="381596.40">
<activity type="rest">
</activity>
</facility>
<facility id="273" x="412465.50 " y="381896.50">
<activity type="rest">
</activity>
</facility>
<facility id="274" x="265208.91 " y="391171.53">
<activity type="rest">
</activity>
</facility>
<facility id="275" x="276339.36 " y="383509.28">
<activity type="rest">
</activity>
</facility>
<facility id="276" x="288797.41 " y="377099.50">
<activity type="rest">
</activity>
</facility>
<facility id="277" x="289243.37 " y="376787.87">
<activity type="rest">
</activity>
</facility>
<facility id="278" x="306471.19 " y="368796.26">
<activity type="rest">
</activity>
</facility>
<facility id="279" x="204063.91 " y="504274.70">
<activity type="rest">
</activity>
</facility>
<facility id="280" x="203743.73 " y="504319.81">
<activity type="rest">
</activity>
</facility>
<facility id="281" x="238431.65 " y="502490.53">
<activity type="rest">
</activity>
</facility>
<facility id="282" x="238809.78 " y="502473.30">
<activity type="rest">
</activity>
</facility>
<facility id="283" x="280952.84 " y="499093.91">
<activity type="rest">
</activity>
</facility>
<facility id="284" x="280539.45 " y="498881.47">
<activity type="rest">
</activity>
</facility>
<facility id="285" x="238339.00 " y="553953.00">
<activity type="rest">
</activity>
</facility>
<facility id="286" x="238438.00 " y="553706.00">
<activity type="rest">
</activity>
</facility>
<facility id="287" x="265456.63 " y="525248.23">
<activity type="rest">
</activity>
</facility>
<facility id="288" x="265596.08 " y="525201.55">
<activity type="rest">
</activity>
</facility>
<facility id="289" x="265703.88 " y="479973.93">
<activity type="rest">
</activity>
</facility>
<facility id="290" x="265826.51 " y="479830.24">
<activity type="rest">
</activity>
</facility>
<facility id="291" x="265314.50 " y="454363.31">
<activity type="rest">
</activity>
</facility>
<facility id="292" x="211474.83 " y="428501.24">
<activity type="rest">
</activity>
</facility>
<facility id="293" x="211572.00 " y="428404.00">
<activity type="rest">
</activity>
</facility>
</facilities>