<?xml version="1.0"?>
<!DOCTYPE facilities SYSTEM "http://www.matsim.org/files/dtd/facilities_v1.dtd">
<facilities name="mopy" >
<facility id="1" x="1624770.57646" y="990060.434043">
<activity type="rest">
</activity>
</facility>
<facility id="2" x="1627432.05961" y="991625.528129">
<activity type="rest">
</activity>
</facility>
<facility id="3" x="1636420.44344" y="995720.529918">
<activity type="rest">
</activity>
</facility>
<facility id="4" x="1610828.66949" y="1085929.53659">
<activity type="rest">
</activity>
</facility>
<facility id="5" x="1600662.89571" y="974377.854854">
<activity type="rest">
</activity>
</facility>
<facility id="6" x="1603135.92705" y="976930.154587">
<activity type="rest">
</activity>
</facility>
<facility id="7" x="1343829.85922" y="997987.168374">
<activity type="rest">
</activity>
</facility>
<facility id="8" x="1343514.13803" y="999790.830118">
<activity type="rest">
</activity>
</facility>
<facility id="9" x="1352922.93799" y="966926.234114">
<activity type="rest">
</activity>
</facility>
<facility id="10" x="1352990.51629" y="967223.022967">
<activity type="rest">
</activity>
</facility>
<facility id="11" x="1355299.0557" y="957764.948488">
<activity type="rest">
</activity>
</facility>
<facility id="12" x="1355426.74508" y="957704.249162">
<activity type="rest">
</activity>
</facility>
<facility id="13" x="1358464.43167" y="945032.871553">
<activity type="rest">
</activity>
</facility>
<facility id="14" x="1358369.18165" y="945149.199248">
<activity type="rest">
</activity>
</facility>
<facility id="15" x="1359987.46292" y="930621.644659">
<activity type="rest">
</activity>
</facility>
<facility id="16" x="1360077.4881" y="930370.623062">
<activity type="rest">
</activity>
</facility>
<facility id="17" x="1360903.72716" y="918216.160682">
<activity type="rest">
</activity>
</facility>
<facility id="18" x="1361125.19086" y="917908.856836">
<activity type="rest">
</activity>
</facility>
<facility id="19" x="1372013.03164" y="904025.619867">
<activity type="rest">
</activity>
</facility>
<facility id="20" x="1372234.61293" y="903771.527759">
<activity type="rest">
</activity>
</facility>
<facility id="21" x="1378810.31816" y="892969.321435">
<activity type="rest">
</activity>
</facility>
<facility id="22" x="1379118.54876" y="892986.655254">
<activity type="rest">
</activity>
</facility>
<facility id="23" x="1385815.43596" y="884065.29808">
<activity type="rest">
</activity>
</facility>
<facility id="24" x="1386101.73889" y="883994.816337">
<activity type="rest">
</activity>
</facility>
<facility id="25" x="1399550.13287" y="874489.33014">
<activity type="rest">
</activity>
</facility>
<facility id="26" x="1399808.56464" y="874502.041582">
<activity type="rest">
</activity>
</facility>
<facility id="27" x="1412922.13708" y="862338.552235">
<activity type="rest">
</activity>
</facility>
<facility id="28" x="1413009.62936" y="862355.751396">
<activity type="rest">
</activity>
</facility>
<facility id="29" x="1334150.78941" y="1060558.06492">
<activity type="rest">
</activity>
</facility>
<facility id="30" x="1334362.70579" y="1060261.85464">
<activity type="rest">
</activity>
</facility>
<facility id="31" x="1339000.15668" y="1026550.54378">
<activity type="rest">
</activity>
</facility>
<facility id="32" x="1339071.79784" y="1026897.66292">
<activity type="rest">
</activity>
</facility>
<facility id="33" x="1343502.59753" y="1074394.85632">
<activity type="rest">
</activity>
</facility>
<facility id="34" x="1421892.14541" y="645251.824337">
<activity type="rest">
</activity>
</facility>
<facility id="35" x="1421629.12531" y="645016.579448">
<activity type="rest">
</activity>
</facility>
<facility id="36" x="1403191.27899" y="638672.55414">
<activity type="rest">
</activity>
</facility>
<facility id="37" x="1402735.76695" y="638401.214898">
<activity type="rest">
</activity>
</facility>
<facility id="38" x="1402865.80669" y="618976.008578">
<activity type="rest">
</activity>
</facility>
<facility id="39" x="1402993.89163" y="618753.081976">
<activity type="rest">
</activity>
</facility>
<facility id="40" x="1402070.7698" y="605172.28428">
<activity type="rest">
</activity>
</facility>
<facility id="41" x="1402163.06103" y="604959.086282">
<activity type="rest">
</activity>
</facility>
<facility id="42" x="1393316.10544" y="590632.0112">
<activity type="rest">
</activity>
</facility>
<facility id="43" x="1377167.55333" y="641004.75873">
<activity type="rest">
</activity>
</facility>
<facility id="44" x="1377545.49428" y="640838.054598">
<activity type="rest">
</activity>
</facility>
<facility id="45" x="1390509.18984" y="629739.783969">
<activity type="rest">
</activity>
</facility>
<facility id="46" x="1390305.29368" y="630286.270358">
<activity type="rest">
</activity>
</facility>
<facility id="47" x="1414945.74292" y="626801.218154">
<activity type="rest">
</activity>
</facility>
<facility id="48" x="1414577.27799" y="626872.23931">
<activity type="rest">
</activity>
</facility>
<facility id="49" x="1445719.6777" y="619816.171156">
<activity type="rest">
</activity>
</facility>
<facility id="50" x="1446231.05558" y="619881.790597">
<activity type="rest">
</activity>
</facility>
<facility id="51" x="1437850.39479" y="634905.892499">
<activity type="rest">
</activity>
</facility>
<facility id="52" x="1432481.05983" y="617711.045459">
<activity type="rest">
</activity>
</facility>
<facility id="53" x="1436616.50723" y="631929.502354">
<activity type="rest">
</activity>
</facility>
<facility id="54" x="1432275.42096" y="617415.94661">
<activity type="rest">
</activity>
</facility>
<facility id="55" x="1424597.95102" y="578777.408533">
<activity type="rest">
</activity>
</facility>
<facility id="56" x="1422375.20303" y="577614.266832">
<activity type="rest">
</activity>
</facility>
<facility id="57" x="1418650.95934" y="575960.992326">
<activity type="rest">
</activity>
</facility>
<facility id="58" x="1409941.79575" y="571353.16967">
<activity type="rest">
</activity>
</facility>
<facility id="59" x="1409511.16119" y="571243.616522">
<activity type="rest">
</activity>
</facility>
<facility id="60" x="1406372.30838" y="570905.120329">
<activity type="rest">
</activity>
</facility>
<facility id="61" x="1406032.29931" y="570840.429222">
<activity type="rest">
</activity>
</facility>
<facility id="62" x="1536684.80541" y="734399.355232">
<activity type="rest">
</activity>
</facility>
<facility id="63" x="1532537.61344" y="727238.993764">
<activity type="rest">
</activity>
</facility>
<facility id="64" x="1516958.34868" y="709474.771556">
<activity type="rest">
</activity>
</facility>
<facility id="65" x="1517002.16759" y="709604.705675">
<activity type="rest">
</activity>
</facility>
<facility id="66" x="1532355.05417" y="726965.833695">
<activity type="rest">
</activity>
</facility>
<facility id="67" x="1502885.04707" y="675410.989127">
<activity type="rest">
</activity>
</facility>
<facility id="68" x="1505283.52722" y="679798.238966">
<activity type="rest">
</activity>
</facility>
<facility id="69" x="1479795.29478" y="617271.243527">
<activity type="rest">
</activity>
</facility>
<facility id="70" x="1480696.9303" y="617675.805021">
<activity type="rest">
</activity>
</facility>
<facility id="71" x="1522404.91299" y="613953.204157">
<activity type="rest">
</activity>
</facility>
<facility id="72" x="1522724.59386" y="613922.638498">
<activity type="rest">
</activity>
</facility>
<facility id="73" x="1560295.48611" y="626559.271657">
<activity type="rest">
</activity>
</facility>
<facility id="74" x="1560649.99587" y="626320.618839">
<activity type="rest">
</activity>
</facility>
<facility id="75" x="1507807.84553" y="614743.127072">
<activity type="rest">
</activity>
</facility>
<facility id="76" x="1507904.6122" y="614850.732881">
<activity type="rest">
</activity>
</facility>
<facility id="77" x="1542306.50735" y="618334.345602">
<activity type="rest">
</activity>
</facility>
<facility id="78" x="1541603.46882" y="618270.167328">
<activity type="rest">
</activity>
</facility>
<facility id="79" x="1628459.23196" y="791594.211163">
<activity type="rest">
</activity>
</facility>
<facility id="80" x="1628021.94724" y="791621.216767">
<activity type="rest">
</activity>
</facility>
<facility id="81" x="1424465.43923" y="846902.759673">
<activity type="rest">
</activity>
</facility>
<facility id="82" x="1424568.2776" y="846159.677604">
<activity type="rest">
</activity>
</facility>
<facility id="83" x="1431359.28845" y="827544.462298">
<activity type="rest">
</activity>
</facility>
<facility id="84" x="1431454.10222" y="827398.594753">
<activity type="rest">
</activity>
</facility>
<facility id="85" x="1442135.4288" y="810427.341163">
<activity type="rest">
</activity>
</facility>
<facility id="86" x="1442135.4288" y="810427.341163">
<activity type="rest">
</activity>
</facility>
<facility id="87" x="1440758.51256" y="794530.500165">
<activity type="rest">
</activity>
</facility>
<facility id="88" x="1440758.51256" y="794530.500165">
<activity type="rest">
</activity>
</facility>
<facility id="89" x="1385714.09976" y="823678.983926">
<activity type="rest">
</activity>
</facility>
<facility id="90" x="1385379.56828" y="823766.288084">
<activity type="rest">
</activity>
</facility>
<facility id="91" x="1407666.68039" y="816770.182783">
<activity type="rest">
</activity>
</facility>
<facility id="92" x="1407296.34452" y="816854.780991">
<activity type="rest">
</activity>
</facility>
<facility id="93" x="1423806.20786" y="816377.929789">
<activity type="rest">
</activity>
</facility>
<facility id="94" x="1423523.19973" y="816380.270193">
<activity type="rest">
</activity>
</facility>
<facility id="95" x="1434640.49582" y="815030.98722">
<activity type="rest">
</activity>
</facility>
<facility id="96" x="1434060.56443" y="815070.321583">
<activity type="rest">
</activity>
</facility>
<facility id="97" x="1444675.99985" y="817475.134588">
<activity type="rest">
</activity>
</facility>
<facility id="98" x="1444138.99279" y="817201.525666">
<activity type="rest">
</activity>
</facility>
<facility id="99" x="1462535.6515" y="835059.292834">
<activity type="rest">
</activity>
</facility>
<facility id="100" x="1462190.31957" y="834590.047691">
<activity type="rest">
</activity>
</facility>
<facility id="101" x="1477614.30488" y="842682.912179">
<activity type="rest">
</activity>
</facility>
<facility id="102" x="1477173.78367" y="842567.093184">
<activity type="rest">
</activity>
</facility>
<facility id="103" x="1371936.37917" y="745074.478233">
<activity type="rest">
</activity>
</facility>
<facility id="104" x="1372120.51377" y="745401.582045">
<activity type="rest">
</activity>
</facility>
<facility id="105" x="1381236.23444" y="765600.930152">
<activity type="rest">
</activity>
</facility>
<facility id="106" x="1381167.61638" y="766051.470403">
<activity type="rest">
</activity>
</facility>
<facility id="107" x="1396821.09309" y="773514.280003">
<activity type="rest">
</activity>
</facility>
<facility id="108" x="1397287.05416" y="773554.555492">
<activity type="rest">
</activity>
</facility>
<facility id="109" x="1407687.87706" y="772594.480182">
<activity type="rest">
</activity>
</facility>
<facility id="110" x="1407687.87706" y="772594.480182">
<activity type="rest">
</activity>
</facility>
<facility id="111" x="1430686.229" y="785187.147929">
<activity type="rest">
</activity>
</facility>
<facility id="112" x="1430366.93855" y="785084.951398">
<activity type="rest">
</activity>
</facility>
<facility id="113" x="1459285.05752" y="772780.722187">
<activity type="rest">
</activity>
</facility>
<facility id="114" x="1459799.77754" y="773524.553472">
<activity type="rest">
</activity>
</facility>
<facility id="115" x="1487546.29075" y="815323.644424">
<activity type="rest">
</activity>
</facility>
<facility id="116" x="1450546.19445" y="766613.268121">
<activity type="rest">
</activity>
</facility>
<facility id="117" x="1450546.19445" y="766613.268121">
<activity type="rest">
</activity>
</facility>
<facility id="118" x="1457151.43628" y="769686.483271">
<activity type="rest">
</activity>
</facility>
<facility id="119" x="1462464.17376" y="775388.045176">
<activity type="rest">
</activity>
</facility>
<facility id="120" x="1463088.65174" y="775769.148472">
<activity type="rest">
</activity>
</facility>
<facility id="121" x="1463648.4082" y="775943.911528">
<activity type="rest">
</activity>
</facility>
<facility id="122" x="1465110.54671" y="777331.119062">
<activity type="rest">
</activity>
</facility>
<facility id="123" x="1477946.77439" y="793689.567077">
<activity type="rest">
</activity>
</facility>
<facility id="124" x="1481422.05069" y="798446.107473">
<activity type="rest">
</activity>
</facility>
<facility id="125" x="1483187.14199" y="804937.650861">
<activity type="rest">
</activity>
</facility>
<facility id="126" x="1483187.14199" y="804937.650861">
<activity type="rest">
</activity>
</facility>
<facility id="127" x="1491136.33159" y="820729.145576">
<activity type="rest">
</activity>
</facility>
<facility id="128" x="1457124.13249" y="769731.640812">
<activity type="rest">
</activity>
</facility>
<facility id="129" x="1457124.13249" y="769731.640812">
<activity type="rest">
</activity>
</facility>
<facility id="130" x="1459652.91949" y="773342.751115">
<activity type="rest">
</activity>
</facility>
<facility id="131" x="1460619.90817" y="774187.113777">
<activity type="rest">
</activity>
</facility>
<facility id="132" x="1462895.08607" y="775715.153117">
<activity type="rest">
</activity>
</facility>
<facility id="133" x="1464815.25757" y="777083.821394">
<activity type="rest">
</activity>
</facility>
<facility id="134" x="1466691.18963" y="778507.298218">
<activity type="rest">
</activity>
</facility>
<facility id="135" x="1472774.71461" y="786898.938992">
<activity type="rest">
</activity>
</facility>
<facility id="136" x="1479211.71366" y="795486.049138">
<activity type="rest">
</activity>
</facility>
<facility id="137" x="1480812.14009" y="797455.403216">
<activity type="rest">
</activity>
</facility>
<facility id="138" x="1483217.04895" y="805203.197894">
<activity type="rest">
</activity>
</facility>
<facility id="139" x="1495600.75187" y="828901.203576">
<activity type="rest">
</activity>
</facility>
<facility id="140" x="1386180.27542" y="1062068.95901">
<activity type="rest">
</activity>
</facility>
<facility id="141" x="1388678.6573" y="1062317.89729">
<activity type="rest">
</activity>
</facility>
<facility id="142" x="1392229.4792" y="1059745.38727">
<activity type="rest">
</activity>
</facility>
<facility id="143" x="1400017.15444" y="1057452.8401">
<activity type="rest">
</activity>
</facility>
<facility id="144" x="1411333.55656" y="1037833.13989">
<activity type="rest">
</activity>
</facility>
<facility id="145" x="1411403.79387" y="1037305.80284">
<activity type="rest">
</activity>
</facility>
<facility id="146" x="1416473.62663" y="1029005.66687">
<activity type="rest">
</activity>
</facility>
<facility id="147" x="1416583.94597" y="1028780.95766">
<activity type="rest">
</activity>
</facility>
<facility id="148" x="1435941.93751" y="1013610.99301">
<activity type="rest">
</activity>
</facility>
<facility id="149" x="1436318.97777" y="1013217.53854">
<activity type="rest">
</activity>
</facility>
<facility id="150" x="1455459.61531" y="1002037.88361">
<activity type="rest">
</activity>
</facility>
<facility id="151" x="1457262.98781" y="998978.933605">
<activity type="rest">
</activity>
</facility>
<facility id="152" x="1459602.68213" y="991568.142842">
<activity type="rest">
</activity>
</facility>
<facility id="153" x="1303264.48727" y="669430.855805">
<activity type="rest">
</activity>
</facility>
<facility id="154" x="1305176.74161" y="668346.618307">
<activity type="rest">
</activity>
</facility>
<facility id="155" x="1322026.89523" y="661578.37683">
<activity type="rest">
</activity>
</facility>
<facility id="156" x="1321524.58988" y="661834.510854">
<activity type="rest">
</activity>
</facility>
<facility id="157" x="1337611.57461" y="651871.826741">
<activity type="rest">
</activity>
</facility>
<facility id="158" x="1337934.98751" y="651676.151325">
<activity type="rest">
</activity>
</facility>
<facility id="159" x="1360705.24243" y="642840.702536">
<activity type="rest">
</activity>
</facility>
<facility id="160" x="1360414.62431" y="642787.853059">
<activity type="rest">
</activity>
</facility>
<facility id="161" x="1197608.51295" y="836862.555194">
<activity type="rest">
</activity>
</facility>
<facility id="162" x="1197608.51295" y="836862.555194">
<activity type="rest">
</activity>
</facility>
<facility id="163" x="1216790.50343" y="841244.983079">
<activity type="rest">
</activity>
</facility>
<facility id="164" x="1216790.50343" y="841244.983079">
<activity type="rest">
</activity>
</facility>
<facility id="165" x="1234720.05948" y="839248.248539">
<activity type="rest">
</activity>
</facility>
<facility id="166" x="1234720.05948" y="839248.248539">
<activity type="rest">
</activity>
</facility>
<facility id="167" x="1259509.30993" y="839766.574487">
<activity type="rest">
</activity>
</facility>
<facility id="168" x="1259509.30993" y="839766.574487">
<activity type="rest">
</activity>
</facility>
<facility id="169" x="1281922.58155" y="841417.042103">
<activity type="rest">
</activity>
</facility>
<facility id="170" x="1281922.58155" y="841417.042103">
<activity type="rest">
</activity>
</facility>
<facility id="171" x="1298092.60192" y="840843.01582">
<activity type="rest">
</activity>
</facility>
<facility id="172" x="1298092.60192" y="840843.01582">
<activity type="rest">
</activity>
</facility>
<facility id="173" x="1307794.09607" y="838404.508978">
<activity type="rest">
</activity>
</facility>
<facility id="174" x="1319466.78294" y="835500.18496">
<activity type="rest">
</activity>
</facility>
<facility id="175" x="1331787.30046" y="832429.911065">
<activity type="rest">
</activity>
</facility>
<facility id="176" x="1331787.30046" y="832429.911065">
<activity type="rest">
</activity>
</facility>
<facility id="177" x="1342746.1793" y="830864.443577">
<activity type="rest">
</activity>
</facility>
<facility id="178" x="1342746.1793" y="830864.443577">
<activity type="rest">
</activity>
</facility>
<facility id="179" x="1354951.61284" y="832591.833534">
<activity type="rest">
</activity>
</facility>
<facility id="180" x="1354951.61284" y="832591.833534">
<activity type="rest">
</activity>
</facility>
<facility id="181" x="1367319.26407" y="832369.434323">
<activity type="rest">
</activity>
</facility>
<facility id="182" x="1367319.26407" y="832369.434323">
<activity type="rest">
</activity>
</facility>
<facility id="183" x="1377288.19066" y="829576.01236">
<activity type="rest">
</activity>
</facility>
<facility id="184" x="1377288.19066" y="829576.01236">
<activity type="rest">
</activity>
</facility>
<facility id="185" x="1282749.29606" y="862890.241925">
<activity type="rest">
</activity>
</facility>
<facility id="186" x="1282749.29606" y="862890.241925">
<activity type="rest">
</activity>
</facility>
<facility id="187" x="1274516.10485" y="853615.425885">
<activity type="rest">
</activity>
</facility>
<facility id="188" x="1274516.10485" y="853615.425885">
<activity type="rest">
</activity>
</facility>
<facility id="189" x="1266441.63978" y="844715.035042">
<activity type="rest">
</activity>
</facility>
<facility id="190" x="1266441.63978" y="844715.035042">
<activity type="rest">
</activity>
</facility>
<facility id="191" x="1244941.24893" y="766228.362128">
<activity type="rest">
</activity>
</facility>
<facility id="192" x="1244941.24893" y="766228.362128">
<activity type="rest">
</activity>
</facility>
<facility id="193" x="1244941.24893" y="766228.362128">
<activity type="rest">
</activity>
</facility>
<facility id="194" x="1244941.24893" y="766228.362128">
<activity type="rest">
</activity>
</facility>
<facility id="195" x="1291678.98437" y="874194.974417">
<activity type="rest">
</activity>
</facility>
<facility id="196" x="1291883.55818" y="875088.423456">
<activity type="rest">
</activity>
</facility>
<facility id="197" x="1236696.66949" y="841853.16944">
<activity type="rest">
</activity>
</facility>
<facility id="198" x="1236644.78013" y="842062.320837">
<activity type="rest">
</activity>
</facility>
<facility id="199" x="1352065.24701" y="733075.364875">
<activity type="rest">
</activity>
</facility>
<facility id="200" x="1354753.76508" y="736816.22059">
<activity type="rest">
</activity>
</facility>
<facility id="201" x="1583070.22788" y="636819.526278">
<activity type="rest">
</activity>
</facility>
<facility id="202" x="1582758.25251" y="636520.560472">
<activity type="rest">
</activity>
</facility>
<facility id="203" x="1603616.58119" y="640207.611297">
<activity type="rest">
</activity>
</facility>
<facility id="204" x="1604092.72433" y="640457.724527">
<activity type="rest">
</activity>
</facility>
<facility id="205" x="1626369.09909" y="646018.453102">
<activity type="rest">
</activity>
</facility>
<facility id="206" x="1626854.65608" y="646003.304414">
<activity type="rest">
</activity>
</facility>
<facility id="207" x="1430097.15796" y="584548.850784">
<activity type="rest">
</activity>
</facility>
<facility id="208" x="1430086.87572" y="584572.531266">
<activity type="rest">
</activity>
</facility>
<facility id="209" x="1430005.84076" y="585977.532083">
<activity type="rest">
</activity>
</facility>
<facility id="210" x="1430001.51631" y="585978.877172">
<activity type="rest">
</activity>
</facility>
<facility id="211" x="1682685.15267" y="643581.438525">
<activity type="rest">
</activity>
</facility>
<facility id="212" x="1682545.9534" y="643906.122536">
<activity type="rest">
</activity>
</facility>
<facility id="213" x="1693749.61141" y="637228.786513">
<activity type="rest">
</activity>
</facility>
<facility id="214" x="1693868.58168" y="636908.480798">
<activity type="rest">
</activity>
</facility>
<facility id="215" x="1713233.30516" y="644385.34973">
<activity type="rest">
</activity>
</facility>
<facility id="216" x="1712976.63665" y="644143.654335">
<activity type="rest">
</activity>
</facility>
<facility id="217" x="1078563.96202" y="930222.485514">
<activity type="rest">
</activity>
</facility>
<facility id="218" x="1078736.65352" y="930299.034757">
<activity type="rest">
</activity>
</facility>
<facility id="219" x="1088774.93573" y="913858.264687">
<activity type="rest">
</activity>
</facility>
<facility id="220" x="1088915.08518" y="913941.295936">
<activity type="rest">
</activity>
</facility>
<facility id="221" x="1100254.4169" y="903694.626039">
<activity type="rest">
</activity>
</facility>
<facility id="222" x="1100096.00267" y="903656.754234">
<activity type="rest">
</activity>
</facility>
<facility id="223" x="1091014.93449" y="962423.017486">
<activity type="rest">
</activity>
</facility>
<facility id="224" x="1090644.21662" y="958353.186772">
<activity type="rest">
</activity>
</facility>
<facility id="225" x="1090499.83607" y="949220.734896">
<activity type="rest">
</activity>
</facility>
<facility id="226" x="1067583.57806" y="932904.727166">
<activity type="rest">
</activity>
</facility>
<facility id="227" x="1067563.00587" y="932721.050396">
<activity type="rest">
</activity>
</facility>
<facility id="228" x="1069478.69313" y="933506.981374">
<activity type="rest">
</activity>
</facility>
<facility id="229" x="1346380.57822" y="957342.329508">
<activity type="rest">
</activity>
</facility>
<facility id="230" x="1346140.4296" y="957154.302729">
<activity type="rest">
</activity>
</facility>
<facility id="231" x="1349321.40472" y="973262.706949">
<activity type="rest">
</activity>
</facility>
<facility id="232" x="1349210.33353" y="973027.642131">
<activity type="rest">
</activity>
</facility>
<facility id="233" x="1346283.65757" y="1044566.34695">
<activity type="rest">
</activity>
</facility>
<facility id="234" x="1346101.79206" y="1044518.29155">
<activity type="rest">
</activity>
</facility>
<facility id="235" x="1495884.85509" y="887746.665937">
<activity type="rest">
</activity>
</facility>
<facility id="236" x="1523092.88435" y="828170.826213">
<activity type="rest">
</activity>
</facility>
<facility id="237" x="1523081.75397" y="826800.483704">
<activity type="rest">
</activity>
</facility>
<facility id="238" x="1525536.03772" y="823432.703828">
<activity type="rest">
</activity>
</facility>
<facility id="239" x="1525504.5887" y="823364.382851">
<activity type="rest">
</activity>
</facility>
<facility id="240" x="1529354.3946" y="814179.434121">
<activity type="rest">
</activity>
</facility>
<facility id="241" x="1529528.07458" y="814065.576838">
<activity type="rest">
</activity>
</facility>
<facility id="242" x="1531698.98428" y="809080.572013">
<activity type="rest">
</activity>
</facility>
<facility id="243" x="1531995.95692" y="808563.091246">
<activity type="rest">
</activity>
</facility>
<facility id="244" x="1523081.75397" y="826800.483704">
<activity type="rest">
</activity>
</facility>
<facility id="245" x="1536204.00155" y="800996.88119">
<activity type="rest">
</activity>
</facility>
<facility id="246" x="1539339.44518" y="796620.827183">
<activity type="rest">
</activity>
</facility>
<facility id="247" x="1540245.42664" y="796062.554258">
<activity type="rest">
</activity>
</facility>
<facility id="248" x="1546705.30242" y="791883.338929">
<activity type="rest">
</activity>
</facility>
<facility id="249" x="1543596.25124" y="793420.245101">
<activity type="rest">
</activity>
</facility>
<facility id="250" x="1497046.41105" y="831908.19664">
<activity type="rest">
</activity>
</facility>
<facility id="251" x="1332573.51028" y="961268.945832">
<activity type="rest">
</activity>
</facility>
<facility id="252" x="1502747.02561" y="838761.500681">
<activity type="rest">
</activity>
</facility>
<facility id="253" x="1507884.22216" y="842414.355428">
<activity type="rest">
</activity>
</facility>
<facility id="254" x="1509378.3944" y="843979.912274">
<activity type="rest">
</activity>
</facility>
<facility id="255" x="1538845.59742" y="894783.909465">
<activity type="rest">
</activity>
</facility>
<facility id="256" x="1541617.39618" y="897152.402343">
<activity type="rest">
</activity>
</facility>
<facility id="257" x="1543275.19453" y="898764.949848">
<activity type="rest">
</activity>
</facility>
<facility id="258" x="1384096.62101" y="1027416.56186">
<activity type="rest">
</activity>
</facility>
<facility id="259" x="1136985.91258" y="698158.468368">
<activity type="rest">
</activity>
</facility>
<facility id="260" x="1136907.72562" y="698032.135125">
<activity type="rest">
</activity>
</facility>
<facility id="261" x="1169481.99024" y="715840.677526">
<activity type="rest">
</activity>
</facility>
<facility id="262" x="1291281.96368" y="676711.599231">
<activity type="rest">
</activity>
</facility>
<facility id="263" x="1291064.5711" y="676794.650946">
<activity type="rest">
</activity>
</facility>
<facility id="264" x="1152704.98036" y="706140.7446">
<activity type="rest">
</activity>
</facility>
<facility id="265" x="1152804.91355" y="706353.58452">
<activity type="rest">
</activity>
</facility>
<facility id="266" x="1277180.1018" y="687635.696233">
<activity type="rest">
</activity>
</facility>
<facility id="267" x="1277456.10529" y="687399.133778">
<activity type="rest">
</activity>
</facility>
<facility id="268" x="1281990.1495" y="718388.542725">
<activity type="rest">
</activity>
</facility>
<facility id="269" x="1282767.30524" y="718558.075543">
<activity type="rest">
</activity>
</facility>
<facility id="270" x="1302553.40205" y="722479.200805">
<activity type="rest">
</activity>
</facility>
<facility id="271" x="1302957.30576" y="722863.199738">
<activity type="rest">
</activity>
</facility>
<facility id="272" x="1318013.79668" y="730745.20459">
<activity type="rest">
</activity>
</facility>
<facility id="273" x="1318926.61675" y="731186.601421">
<activity type="rest">
</activity>
</facility>
<facility id="274" x="1171381.65025" y="718358.619414">
<activity type="rest">
</activity>
</facility>
<facility id="275" x="1183575.46352" y="712432.094987">
<activity type="rest">
</activity>
</facility>
<facility id="276" x="1196896.92786" y="707945.057614">
<activity type="rest">
</activity>
</facility>
<facility id="277" x="1197386.11815" y="707702.860369">
<activity type="rest">
</activity>
</facility>
<facility id="278" x="1215675.86294" y="702358.688557">
<activity type="rest">
</activity>
</facility>
<facility id="279" x="1093572.62994" y="821333.81889">
<activity type="rest">
</activity>
</facility>
<facility id="280" x="1093247.89958" y="821329.775671">
<activity type="rest">
</activity>
</facility>
<facility id="281" x="1127968.5094" y="824794.651285">
<activity type="rest">
</activity>
</facility>
<facility id="282" x="1128346.64865" y="824835.015396">
<activity type="rest">
</activity>
</facility>
<facility id="283" x="1170720.01338" y="827870.784488">
<activity type="rest">
</activity>
</facility>
<facility id="284" x="1170341.47256" y="827597.149299">
<activity type="rest">
</activity>
</facility>
<facility id="285" x="1120039.3376" y="875906.461223">
<activity type="rest">
</activity>
</facility>
<facility id="286" x="1120175.41349" y="875676.089511">
<activity type="rest">
</activity>
</facility>
<facility id="287" x="1151357.48754" y="851508.252983">
<activity type="rest">
</activity>
</facility>
<facility id="288" x="1151503.14927" y="851483.043948">
<activity type="rest">
</activity>
</facility>
<facility id="289" x="1158467.90421" y="806570.70675">
<activity type="rest">
</activity>
</facility>
<facility id="290" x="1158611.43876" y="806446.576286">
<activity type="rest">
</activity>
</facility>
<facility id="291" x="1161955.27996" y="781082.825574">
<activity type="rest">
</activity>
</facility>
<facility id="292" x="1112444.2371" y="747271.754759">